1a0q_ligand
     RDKit          3D

 23 23  0  0  0  0  0  0  0  0999 V2000
   13.1603   20.8180   59.0016 C   0  0  2  0  0  0  0  0  0  0  0  0
   12.7163   19.8124   57.9476 C   0  0  0  0  0  0  0  0  0  0  0  0
   11.7450   18.8026   58.5094 C   0  0  0  0  0  0  0  0  0  0  0  0
   11.2616   17.9251   57.3695 C   0  0  0  0  0  0  0  0  0  0  0  0
   12.3717   17.0608   56.8066 C   0  0  0  0  0  0  0  0  0  0  0  0
   17.3555   21.8101   56.0753 C   0  0  0  0  0  0  0  0  0  0  0  0
   17.7350   21.8300   54.7444 C   0  0  0  0  0  0  0  0  0  0  0  0
   16.7607   21.7407   53.7700 C   0  0  0  0  0  0  0  0  0  0  0  0
   15.4348   21.6340   54.1628 C   0  0  0  0  0  0  0  0  0  0  0  0
   15.0677   21.6152   55.4965 C   0  0  0  0  0  0  0  0  0  0  0  0
   16.0512   21.7053   56.4825 C   0  0  0  0  0  0  0  0  0  0  0  0
   11.9844   20.6635   61.1432 C   0  0  0  0  0  0  0  0  0  0  0  0
   10.7998   20.2444   63.2848 C   0  0  0  0  0  0  0  0  0  0  0  0
   10.8191   20.9995   61.9978 C   0  0  0  0  0  0  0  0  0  0  0  0
   12.0326   19.4159   63.3591 C   0  0  0  0  0  0  0  0  0  0  0  0
   13.3086   22.6679   57.0789 O   0  0  0  0  0  0  0  0  0  0  0  0
   14.2151   23.3894   59.3528 O   0  0  0  0  0  0  0  0  0  0  0  0
   15.6872   21.6867   57.8189 O   0  0  0  0  0  0  0  0  0  0  0  0
   12.8341   19.8619   61.6512 O   0  0  0  0  0  0  0  0  0  0  0  0
   11.8745   18.1578   63.3485 O   0  0  0  0  0  0  0  0  0  0  0  0
   13.3002   19.9597   63.4365 O   0  0  0  0  0  0  0  0  0  0  0  0
   12.0994   21.2190   59.8623 N   0  0  0  0  0  0  0  0  0  0  0  0
   14.1082   22.1173   58.2362 P   0  0  1  0  0  0  0  0  0  0  0  0
  1 23  1  0
  1 22  1  6
  1  2  1  0
  2  3  1  6
  3  4  1  6
  4  5  1  6
 22 12  1  0
 12 19  2  0
 14 12  1  1
 14 13  1  0
 13 15  1  6
 15 20  2  0
 15 21  1  0
 23 16  2  0
 23 17  1  1
 23 18  1  0
 18 11  1  0
 11 10  1  0
 11  6  2  0
  6  7  1  0
  7  8  2  0
  8  9  1  0
  9 10  2  0
M  END
$$$$
