1a0q_ligand
     RDKit          3D

 23 23  0  0  0  0  0  0  0  0999 V2000
   12.9311   20.6211   59.3090 C   0  0  2  0  0  0  0  0  0  0  0  0
   11.9036   19.8690   58.4736 C   0  0  0  0  0  0  0  0  0  0  0  0
   11.5447   18.5386   59.0899 C   0  0  0  0  0  0  0  0  0  0  0  0
   10.6785   17.7776   58.1031 C   0  0  0  0  0  0  0  0  0  0  0  0
   10.3308   16.3901   58.6033 C   0  0  0  0  0  0  0  0  0  0  0  0
   14.9795   21.3328   54.5560 C   0  0  0  0  0  0  0  0  0  0  0  0
   15.7939   21.9480   53.6212 C   0  0  0  0  0  0  0  0  0  0  0  0
   16.9693   22.5373   54.0432 C   0  0  0  0  0  0  0  0  0  0  0  0
   17.2902   22.4903   55.3917 C   0  0  0  0  0  0  0  0  0  0  0  0
   16.4679   21.8723   56.3167 C   0  0  0  0  0  0  0  0  0  0  0  0
   15.2797   21.2763   55.8918 C   0  0  0  0  0  0  0  0  0  0  0  0
   12.2286   20.8374   61.6442 C   0  0  0  0  0  0  0  0  0  0  0  0
   11.2141   20.9423   63.9081 C   0  0  0  0  0  0  0  0  0  0  0  0
   11.8392   21.7015   62.7857 C   0  0  0  0  0  0  0  0  0  0  0  0
   12.2943   20.2619   64.6709 C   0  0  0  0  0  0  0  0  0  0  0  0
   13.5391   22.8734   58.0058 O   0  0  0  0  0  0  0  0  0  0  0  0
   15.5138   21.6865   59.1034 O   0  0  0  0  0  0  0  0  0  0  0  0
   14.4539   20.6566   56.8154 O   0  0  0  0  0  0  0  0  0  0  0  0
   12.4443   19.6130   61.9215 O   0  0  0  0  0  0  0  0  0  0  0  0
   11.9312   19.5185   65.6319 O   0  0  0  0  0  0  0  0  0  0  0  0
   13.6348   20.4120   64.3722 O   0  0  0  0  0  0  0  0  0  0  0  0
   12.3392   21.3808   60.3578 N   0  0  0  0  0  0  0  0  0  0  0  0
   14.0690   21.4783   58.2400 P   0  0  1  0  0  0  0  0  0  0  0  0
  1 23  1  0
  1 22  1  1
  1  2  1  0
  2  3  1  6
  3  4  1  6
  4  5  1  6
 22 12  1  0
 12 19  2  0
 14 12  1  1
 14 13  1  0
 13 15  1  6
 15 20  2  0
 15 21  1  0
 23 16  2  0
 23 17  1  1
 23 18  1  0
 18 11  1  0
 11 10  1  0
 11  6  2  0
  6  7  1  0
  7  8  2  0
  8  9  1  0
  9 10  2  0
M  END
$$$$
