1a0q_ligand
     RDKit          3D

 23 23  0  0  0  0  0  0  0  0999 V2000
   12.4749   20.2497   59.0093 C   0  0  2  0  0  0  0  0  0  0  0  0
   11.1200   19.8901   58.4141 C   0  0  0  0  0  0  0  0  0  0  0  0
   10.4161   18.8275   59.2227 C   0  0  0  0  0  0  0  0  0  0  0  0
   10.7894   17.4722   58.6509 C   0  0  0  0  0  0  0  0  0  0  0  0
   10.1134   16.3363   59.3918 C   0  0  0  0  0  0  0  0  0  0  0  0
   15.0837   22.3393   55.4968 C   0  0  0  0  0  0  0  0  0  0  0  0
   16.0181   22.6728   54.5317 C   0  0  0  0  0  0  0  0  0  0  0  0
   17.2567   23.1342   54.9315 C   0  0  0  0  0  0  0  0  0  0  0  0
   17.5184   23.2463   56.2889 C   0  0  0  0  0  0  0  0  0  0  0  0
   16.5761   22.9098   57.2444 C   0  0  0  0  0  0  0  0  0  0  0  0
   15.3240   22.4434   56.8419 C   0  0  0  0  0  0  0  0  0  0  0  0
   13.0865   21.0292   61.2480 C   0  0  0  0  0  0  0  0  0  0  0  0
   13.2266   21.2155   63.7200 C   0  0  0  0  0  0  0  0  0  0  0  0
   12.7362   21.8258   62.4496 C   0  0  0  0  0  0  0  0  0  0  0  0
   12.0927   20.4991   64.3624 C   0  0  0  0  0  0  0  0  0  0  0  0
   14.6190   19.4440   57.6330 O   0  0  0  0  0  0  0  0  0  0  0  0
   12.7826   20.5395   56.2399 O   0  0  0  0  0  0  0  0  0  0  0  0
   14.3781   22.1055   57.7959 O   0  0  0  0  0  0  0  0  0  0  0  0
   14.0421   20.1991   61.3899 O   0  0  0  0  0  0  0  0  0  0  0  0
   11.2771   21.2055   65.0285 O   0  0  0  0  0  0  0  0  0  0  0  0
   11.9098   19.1338   64.2573 O   0  0  0  0  0  0  0  0  0  0  0  0
   12.3802   21.2143   60.0523 N   0  0  0  0  0  0  0  0  0  0  0  0
   13.6377   20.5902   57.7037 P   0  0  1  0  0  0  0  0  0  0  0  0
  1 23  1  0
  1 22  1  1
  1  2  1  0
  2  3  1  6
  3  4  1  6
  4  5  1  6
 22 12  1  0
 12 19  2  0
 14 12  1  1
 14 13  1  0
 13 15  1  6
 15 20  2  0
 15 21  1  0
 23 16  2  0
 23 17  1  6
 23 18  1  0
 18 11  1  0
 11 10  1  0
 11  6  2  0
  6  7  1  0
  7  8  2  0
  8  9  1  0
  9 10  2  0
M  END
$$$$
