1a0q_ligand
     RDKit          3D

 23 23  0  0  0  0  0  0  0  0999 V2000
   13.2109   20.5283   59.3850 C   0  0  2  0  0  0  0  0  0  0  0  0
   12.6160   19.5969   58.3372 C   0  0  0  0  0  0  0  0  0  0  0  0
   11.9895   18.3748   58.9637 C   0  0  0  0  0  0  0  0  0  0  0  0
   11.1221   17.6983   57.9181 C   0  0  0  0  0  0  0  0  0  0  0  0
   11.9397   17.1649   56.7592 C   0  0  0  0  0  0  0  0  0  0  0  0
   14.6202   21.2511   55.6704 C   0  0  0  0  0  0  0  0  0  0  0  0
   14.7287   21.2861   54.2911 C   0  0  0  0  0  0  0  0  0  0  0  0
   15.9585   21.5559   53.7238 C   0  0  0  0  0  0  0  0  0  0  0  0
   17.0415   21.7823   54.5601 C   0  0  0  0  0  0  0  0  0  0  0  0
   16.9206   21.7446   55.9378 C   0  0  0  0  0  0  0  0  0  0  0  0
   15.6785   21.4721   56.5125 C   0  0  0  0  0  0  0  0  0  0  0  0
   12.5883   20.6662   61.7486 C   0  0  0  0  0  0  0  0  0  0  0  0
   12.0767   20.6720   64.1783 C   0  0  0  0  0  0  0  0  0  0  0  0
   11.5949   20.9894   62.8021 C   0  0  0  0  0  0  0  0  0  0  0  0
   11.8588   19.2220   64.4269 C   0  0  0  0  0  0  0  0  0  0  0  0
   13.1264   22.5290   57.6156 O   0  0  0  0  0  0  0  0  0  0  0  0
   14.4002   23.0356   59.7682 O   0  0  0  0  0  0  0  0  0  0  0  0
   15.5538   21.4336   57.8916 O   0  0  0  0  0  0  0  0  0  0  0  0
   13.6990   20.1948   62.1570 O   0  0  0  0  0  0  0  0  0  0  0  0
   11.2758   18.5686   63.5097 O   0  0  0  0  0  0  0  0  0  0  0  0
   12.2596   18.5897   65.5879 O   0  0  0  0  0  0  0  0  0  0  0  0
   12.2778   20.8837   60.4000 N   0  0  0  0  0  0  0  0  0  0  0  0
   14.0753   21.8646   58.5852 P   0  0  1  0  0  0  0  0  0  0  0  0
  1 23  1  0
  1 22  1  6
  1  2  1  0
  2  3  1  6
  3  4  1  6
  4  5  1  6
 22 12  1  0
 12 19  2  0
 14 12  1  1
 14 13  1  0
 13 15  1  6
 15 20  2  0
 15 21  1  0
 23 16  2  0
 23 17  1  1
 23 18  1  0
 18 11  1  0
 11 10  1  0
 11  6  2  0
  6  7  1  0
  7  8  2  0
  8  9  1  0
  9 10  2  0
M  END
$$$$
