1a0q_ligand
     RDKit          3D

 23 23  0  0  0  0  0  0  0  0999 V2000
   13.7059   20.8270   59.6558 C   0  0  2  0  0  0  0  0  0  0  0  0
   12.7267   19.8884   58.9635 C   0  0  0  0  0  0  0  0  0  0  0  0
   13.4152   18.6589   58.4222 C   0  0  0  0  0  0  0  0  0  0  0  0
   12.6594   18.1963   57.1902 C   0  0  0  0  0  0  0  0  0  0  0  0
   12.2309   16.7468   57.2964 C   0  0  0  0  0  0  0  0  0  0  0  0
   15.3732   23.2387   55.7030 C   0  0  0  0  0  0  0  0  0  0  0  0
   16.1623   23.5141   54.5998 C   0  0  0  0  0  0  0  0  0  0  0  0
   16.1789   22.6180   53.5492 C   0  0  0  0  0  0  0  0  0  0  0  0
   15.4019   21.4726   53.6395 C   0  0  0  0  0  0  0  0  0  0  0  0
   14.6170   21.2084   54.7477 C   0  0  0  0  0  0  0  0  0  0  0  0
   14.5992   22.1129   55.8102 C   0  0  0  0  0  0  0  0  0  0  0  0
   12.7719   20.8062   61.9187 C   0  0  0  0  0  0  0  0  0  0  0  0
   11.4230   20.4382   63.9705 C   0  0  0  0  0  0  0  0  0  0  0  0
   11.5927   21.2265   62.7149 C   0  0  0  0  0  0  0  0  0  0  0  0
   10.8211   19.1243   63.6197 C   0  0  0  0  0  0  0  0  0  0  0  0
   14.7616   23.2010   59.0308 O   0  0  0  0  0  0  0  0  0  0  0  0
   16.0989   21.1757   58.2417 O   0  0  0  0  0  0  0  0  0  0  0  0
   13.8144   21.8515   56.9213 O   0  0  0  0  0  0  0  0  0  0  0  0
   13.4076   19.7936   62.3581 O   0  0  0  0  0  0  0  0  0  0  0  0
   11.3662   18.0959   64.1228 O   0  0  0  0  0  0  0  0  0  0  0  0
    9.7235   18.9976   62.7903 O   0  0  0  0  0  0  0  0  0  0  0  0
   13.1254   21.5116   60.7611 N   0  0  0  0  0  0  0  0  0  0  0  0
   14.5457   21.8260   58.4437 P   0  0  1  0  0  0  0  0  0  0  0  0
  1 23  1  0
  1 22  1  1
  1  2  1  0
  2  3  1  6
  3  4  1  6
  4  5  1  6
 22 12  1  0
 12 19  2  0
 14 12  1  1
 14 13  1  0
 13 15  1  6
 15 20  2  0
 15 21  1  0
 23 16  2  0
 23 17  1  6
 23 18  1  0
 18 11  1  0
 11 10  1  0
 11  6  2  0
  6  7  1  0
  7  8  2  0
  8  9  1  0
  9 10  2  0
M  END
$$$$
