1a0q_ligand
     RDKit          3D

 23 23  0  0  0  0  0  0  0  0999 V2000
   12.8567   20.4393   59.0333 C   0  0  2  0  0  0  0  0  0  0  0  0
   11.6277   20.1249   58.1907 C   0  0  0  0  0  0  0  0  0  0  0  0
   11.0778   18.7515   58.4909 C   0  0  0  0  0  0  0  0  0  0  0  0
   11.6746   17.7741   57.4950 C   0  0  0  0  0  0  0  0  0  0  0  0
   11.2554   16.3458   57.7786 C   0  0  0  0  0  0  0  0  0  0  0  0
   16.8309   22.0100   56.0110 C   0  0  0  0  0  0  0  0  0  0  0  0
   17.1361   22.2286   54.6788 C   0  0  0  0  0  0  0  0  0  0  0  0
   16.1252   22.1569   53.7408 C   0  0  0  0  0  0  0  0  0  0  0  0
   14.8385   21.8678   54.1703 C   0  0  0  0  0  0  0  0  0  0  0  0
   14.5457   21.6512   55.5050 C   0  0  0  0  0  0  0  0  0  0  0  0
   15.5662   21.7233   56.4541 C   0  0  0  0  0  0  0  0  0  0  0  0
   13.5570   20.1158   61.3568 C   0  0  0  0  0  0  0  0  0  0  0  0
   12.3289   19.0732   63.2462 C   0  0  0  0  0  0  0  0  0  0  0  0
   13.2592   20.1553   62.8097 C   0  0  0  0  0  0  0  0  0  0  0  0
   11.2118   19.6955   64.0055 C   0  0  0  0  0  0  0  0  0  0  0  0
   12.8292   22.4780   57.3060 O   0  0  0  0  0  0  0  0  0  0  0  0
   13.8627   22.9958   59.5812 O   0  0  0  0  0  0  0  0  0  0  0  0
   15.2766   21.5070   57.7914 O   0  0  0  0  0  0  0  0  0  0  0  0
   14.7320   19.7398   61.0397 O   0  0  0  0  0  0  0  0  0  0  0  0
   10.9035   19.1546   65.1102 O   0  0  0  0  0  0  0  0  0  0  0  0
   10.5249   20.8070   63.5566 O   0  0  0  0  0  0  0  0  0  0  0  0
   12.5731   20.4793   60.4281 N   0  0  0  0  0  0  0  0  0  0  0  0
   13.7172   21.8403   58.3484 P   0  0  1  0  0  0  0  0  0  0  0  0
  1 23  1  0
  1 22  1  1
  1  2  1  0
  2  3  1  6
  3  4  1  6
  4  5  1  6
 22 12  1  0
 12 19  2  0
 14 12  1  1
 14 13  1  0
 13 15  1  6
 15 20  2  0
 15 21  1  0
 23 16  2  0
 23 17  1  1
 23 18  1  0
 18 11  1  0
 11 10  1  0
 11  6  2  0
  6  7  1  0
  7  8  2  0
  8  9  1  0
  9 10  2  0
M  END
$$$$
