1a0q_ligand
     RDKit          3D

 23 23  0  0  0  0  0  0  0  0999 V2000
   13.0051   20.5301   59.2864 C   0  0  2  0  0  0  0  0  0  0  0  0
   12.1830   19.6445   58.3594 C   0  0  0  0  0  0  0  0  0  0  0  0
   11.9388   18.2802   58.9573 C   0  0  0  0  0  0  0  0  0  0  0  0
   11.7802   17.2865   57.8213 C   0  0  0  0  0  0  0  0  0  0  0  0
   10.3937   17.3356   57.2118 C   0  0  0  0  0  0  0  0  0  0  0  0
   14.9576   20.7017   55.4396 C   0  0  0  0  0  0  0  0  0  0  0  0
   15.2441   20.8218   54.0909 C   0  0  0  0  0  0  0  0  0  0  0  0
   16.3592   21.5394   53.7056 C   0  0  0  0  0  0  0  0  0  0  0  0
   17.1523   22.1143   54.6875 C   0  0  0  0  0  0  0  0  0  0  0  0
   16.8556   21.9873   56.0328 C   0  0  0  0  0  0  0  0  0  0  0  0
   15.7290   21.2624   56.4237 C   0  0  0  0  0  0  0  0  0  0  0  0
   12.6553   20.8233   61.6916 C   0  0  0  0  0  0  0  0  0  0  0  0
   10.9378   20.3161   63.4115 C   0  0  0  0  0  0  0  0  0  0  0  0
   11.8468   21.3424   62.8221 C   0  0  0  0  0  0  0  0  0  0  0  0
   11.6618   19.6282   64.5134 C   0  0  0  0  0  0  0  0  0  0  0  0
   13.0499   22.2364   57.2304 O   0  0  0  0  0  0  0  0  0  0  0  0
   14.2596   23.0344   59.3310 O   0  0  0  0  0  0  0  0  0  0  0  0
   15.4289   21.1332   57.7699 O   0  0  0  0  0  0  0  0  0  0  0  0
   13.7097   20.1832   62.0094 O   0  0  0  0  0  0  0  0  0  0  0  0
   11.4280   18.3909   64.6628 O   0  0  0  0  0  0  0  0  0  0  0  0
   12.5503   20.2768   65.3492 O   0  0  0  0  0  0  0  0  0  0  0  0
   12.2434   21.0488   60.3717 N   0  0  0  0  0  0  0  0  0  0  0  0
   13.9407   21.7044   58.3282 P   0  0  1  0  0  0  0  0  0  0  0  0
  1 23  1  0
  1 22  1  1
  1  2  1  0
  2  3  1  6
  3  4  1  6
  4  5  1  6
 22 12  1  0
 12 19  2  0
 14 12  1  1
 14 13  1  0
 13 15  1  6
 15 20  2  0
 15 21  1  0
 23 16  2  0
 23 17  1  1
 23 18  1  0
 18 11  1  0
 11 10  1  0
 11  6  2  0
  6  7  1  0
  7  8  2  0
  8  9  1  0
  9 10  2  0
M  END
$$$$
