1a0q_ligand
     RDKit          3D

 23 23  0  0  0  0  0  0  0  0999 V2000
   13.1056   20.5676   59.0477 C   0  0  2  0  0  0  0  0  0  0  0  0
   12.1348   19.8017   58.1588 C   0  0  0  0  0  0  0  0  0  0  0  0
   11.5502   18.6041   58.8678 C   0  0  0  0  0  0  0  0  0  0  0  0
   12.3207   17.3719   58.4304 C   0  0  0  0  0  0  0  0  0  0  0  0
   11.6896   16.7042   57.2254 C   0  0  0  0  0  0  0  0  0  0  0  0
   16.3222   21.6935   56.1438 C   0  0  0  0  0  0  0  0  0  0  0  0
   17.4926   21.5610   55.4171 C   0  0  0  0  0  0  0  0  0  0  0  0
   17.4300   21.0484   54.1364 C   0  0  0  0  0  0  0  0  0  0  0  0
   16.1931   20.6845   53.6252 C   0  0  0  0  0  0  0  0  0  0  0  0
   15.0298   20.8217   54.3615 C   0  0  0  0  0  0  0  0  0  0  0  0
   15.0915   21.3396   55.6559 C   0  0  0  0  0  0  0  0  0  0  0  0
   12.9556   20.7154   61.4868 C   0  0  0  0  0  0  0  0  0  0  0  0
   12.6938   19.7520   63.7602 C   0  0  0  0  0  0  0  0  0  0  0  0
   12.0547   20.0199   62.4385 C   0  0  0  0  0  0  0  0  0  0  0  0
   11.7241   20.1103   64.8293 C   0  0  0  0  0  0  0  0  0  0  0  0
   13.7012   23.1150   58.5026 O   0  0  0  0  0  0  0  0  0  0  0  0
   15.6829   21.5071   58.4795 O   0  0  0  0  0  0  0  0  0  0  0  0
   13.9287   21.4783   56.3960 O   0  0  0  0  0  0  0  0  0  0  0  0
   14.1396   20.9359   61.9014 O   0  0  0  0  0  0  0  0  0  0  0  0
   10.9762   19.1790   65.2550 O   0  0  0  0  0  0  0  0  0  0  0  0
   11.6193   21.3845   65.3529 O   0  0  0  0  0  0  0  0  0  0  0  0
   12.4868   21.0873   60.2201 N   0  0  0  0  0  0  0  0  0  0  0  0
   14.0514   21.7124   58.0642 P   0  0  1  0  0  0  0  0  0  0  0  0
  1 23  1  0
  1 22  1  1
  1  2  1  0
  2  3  1  6
  3  4  1  6
  4  5  1  6
 22 12  1  0
 12 19  2  0
 14 12  1  1
 14 13  1  0
 13 15  1  6
 15 20  2  0
 15 21  1  0
 23 16  2  0
 23 17  1  1
 23 18  1  0
 18 11  1  0
 11 10  1  0
 11  6  2  0
  6  7  1  0
  7  8  2  0
  8  9  1  0
  9 10  2  0
M  END
$$$$
