1a0q_ligand
     RDKit          3D

 23 23  0  0  0  0  0  0  0  0999 V2000
   13.2762   20.2803   59.0153 C   0  0  2  0  0  0  0  0  0  0  0  0
   12.7113   19.2919   58.0039 C   0  0  0  0  0  0  0  0  0  0  0  0
   11.7826   18.2943   58.6527 C   0  0  0  0  0  0  0  0  0  0  0  0
   11.3241   17.3129   57.5898 C   0  0  0  0  0  0  0  0  0  0  0  0
   10.8698   15.9970   58.1883 C   0  0  0  0  0  0  0  0  0  0  0  0
   16.0098   22.4009   55.8494 C   0  0  0  0  0  0  0  0  0  0  0  0
   17.0483   22.4411   54.9353 C   0  0  0  0  0  0  0  0  0  0  0  0
   16.8905   21.8124   53.7160 C   0  0  0  0  0  0  0  0  0  0  0  0
   15.6938   21.1626   53.4526 C   0  0  0  0  0  0  0  0  0  0  0  0
   14.6628   21.1294   54.3745 C   0  0  0  0  0  0  0  0  0  0  0  0
   14.8208   21.7642   55.6071 C   0  0  0  0  0  0  0  0  0  0  0  0
   12.4839   20.3788   61.3296 C   0  0  0  0  0  0  0  0  0  0  0  0
   11.5163   20.0697   63.5953 C   0  0  0  0  0  0  0  0  0  0  0  0
   11.5172   20.8757   62.3393 C   0  0  0  0  0  0  0  0  0  0  0  0
   12.6654   20.5071   64.4320 C   0  0  0  0  0  0  0  0  0  0  0  0
   14.0243   22.8451   58.9567 O   0  0  0  0  0  0  0  0  0  0  0  0
   15.8215   21.1730   58.2588 O   0  0  0  0  0  0  0  0  0  0  0  0
   13.7904   21.7329   56.5325 O   0  0  0  0  0  0  0  0  0  0  0  0
   13.4416   19.6690   61.7784 O   0  0  0  0  0  0  0  0  0  0  0  0
   12.7683   19.9773   65.5795 O   0  0  0  0  0  0  0  0  0  0  0  0
   13.5909   21.4414   64.0089 O   0  0  0  0  0  0  0  0  0  0  0  0
   12.3119   20.6974   59.9763 N   0  0  0  0  0  0  0  0  0  0  0  0
   14.1739   21.5649   58.1688 P   0  0  1  0  0  0  0  0  0  0  0  0
  1 23  1  0
  1 22  1  6
  1  2  1  0
  2  3  1  6
  3  4  1  6
  4  5  1  6
 22 12  1  0
 12 19  2  0
 14 12  1  1
 14 13  1  0
 13 15  1  6
 15 20  2  0
 15 21  1  0
 23 16  2  0
 23 17  1  6
 23 18  1  0
 18 11  1  0
 11 10  1  0
 11  6  2  0
  6  7  1  0
  7  8  2  0
  8  9  1  0
  9 10  2  0
M  END
$$$$
