589
     RDKit          3D

 35 40  0  0  0  0  0  0  0  0999 V2000
   -8.2535   -2.4478   -1.8886 C   0  0  0  0  0  0  0  0  0  0  0  0
   -6.9287   -1.8154   -2.1246 C   0  0  0  0  0  0  0  0  0  0  0  0
   -5.8859   -2.2039   -1.1105 C   0  0  0  0  0  0  0  0  0  0  0  0
   -6.3560   -2.0047    0.3079 C   0  0  0  0  0  0  0  0  0  0  0  0
   -7.7326   -2.5773    0.5466 C   0  0  0  0  0  0  0  0  0  0  0  0
   -8.7235   -2.1558   -0.4941 C   0  0  0  0  0  0  0  0  0  0  0  0
   -4.7288   -1.2397   -1.3223 C   0  0  0  0  0  0  0  0  0  0  0  0
   -4.1210   -1.5967   -2.6620 C   0  0  0  0  0  0  0  0  0  0  0  0
   -5.1012   -1.4232   -3.7899 C   0  0  0  0  0  0  0  0  0  0  0  0
   -6.3789   -2.1676   -3.4936 C   0  0  0  0  0  0  0  0  0  0  0  0
   -2.8883   -0.9500   -2.7820 N   0  0  0  0  0  0  0  0  0  0  0  0
   -2.1306   -0.7808   -1.5821 C   0  0  0  0  0  0  0  0  0  0  0  0
   -0.9332   -0.1251   -2.1380 N   0  0  0  0  0  0  0  0  0  0  0  0
   -0.7468   -0.7325   -3.3791 N   0  0  0  0  0  0  0  0  0  0  0  0
   -1.9258   -1.4808   -3.7091 C   0  0  0  0  0  0  0  0  0  0  0  0
   -2.3379   -1.3746   -5.0165 O   0  0  0  0  0  0  0  0  0  0  0  0
   -0.5013    0.2896   -4.3530 C   0  0  2  0  0  0  0  0  0  0  0  0
   -0.4576   -0.1424   -5.7751 C   0  0  0  0  0  0  0  0  0  0  0  0
    0.3130   -1.4520   -5.8383 C   0  0  0  0  0  0  0  0  0  0  0  0
    1.3470   -1.3514   -4.9065 O   0  0  0  0  0  0  0  0  0  0  0  0
    1.8550   -0.0716   -4.7732 C   0  0  0  0  0  0  0  0  0  0  0  0
    0.8963    0.8696   -4.0491 C   0  0  0  0  0  0  0  0  0  0  0  0
   -2.8058    0.1269   -0.5972 C   0  0  0  0  0  0  0  0  0  0  0  0
   -2.6817   -0.4071    0.8099 C   0  0  0  0  0  0  0  0  0  0  0  0
   -3.7437    0.3475    1.6219 C   0  0  0  0  0  0  0  0  0  0  0  0
   -5.0090   -0.2860    1.3019 N   0  0  0  0  0  0  0  0  0  0  0  0
   -5.2356   -0.3478   -0.1064 C   0  0  0  0  0  0  0  0  0  0  0  0
   -4.2305    0.3902   -0.9461 C   0  0  0  0  0  0  0  0  0  0  0  0
   -6.5387    0.1000   -0.5165 N   0  0  0  0  0  0  0  0  0  0  0  0
   -6.7467    0.1535   -1.9293 C   0  0  1  0  0  0  0  0  0  0  0  0
   -8.0877   -0.3038   -2.4000 C   0  0  0  0  0  0  0  0  0  0  0  0
   -8.5475    0.5766   -3.5374 C   0  0  0  0  0  0  0  0  0  0  0  0
   -8.9020    1.9335   -2.9372 C   0  0  0  0  0  0  0  0  0  0  0  0
   -7.6553    2.4778   -2.2749 C   0  0  0  0  0  0  0  0  0  0  0  0
   -6.4833    1.5523   -2.4232 C   0  0  0  0  0  0  0  0  0  0  0  0
  2  1  1  0
  3  2  1  0
  4  3  1  0
  5  4  1  0
  6  1  1  0
  6  5  1  0
  7  3  1  0
  8  7  1  0
  9  8  1  0
 10  9  1  0
 10  2  1  0
 11  8  1  0
 12 11  1  0
 13 12  1  0
 14 13  1  0
 15 14  1  0
 15 11  1  0
 16 15  1  0
 17 14  1  1
 18 17  1  0
 19 18  1  0
 20 19  1  0
 21 20  1  0
 22 21  1  0
 22 17  1  0
 23 12  1  0
 24 23  1  0
 25 24  1  0
 26 25  1  0
 27 26  1  0
 28 27  1  0
 28 23  1  0
 29 27  1  0
 30 29  1  1
 31 30  1  0
 32 31  1  0
 33 32  1  0
 34 33  1  0
 35 34  1  0
 35 30  1  0
M  END
$$$$
