3oy1
     RDKit          3D

 35 40  0  0  0  0  0  0  0  0999 V2000
  -17.0047   12.2215  -36.1861 C   0  0  0  0  0  0  0  0  0  0  0  0
  -18.0833   11.9871  -35.3805 C   0  0  0  0  0  0  0  0  0  0  0  0
  -18.2263   12.6543  -34.1842 C   0  0  0  0  0  0  0  0  0  0  0  0
  -17.2955   13.5753  -33.7579 C   0  0  0  0  0  0  0  0  0  0  0  0
  -16.2053   13.8122  -34.5722 C   0  0  0  0  0  0  0  0  0  0  0  0
  -16.0553   13.1477  -35.7720 C   0  0  0  0  0  0  0  0  0  0  0  0
  -19.3281   12.4007  -33.3834 C   0  0  0  0  0  0  0  0  0  0  0  0
  -20.3046   11.4799  -33.7594 C   0  0  0  0  0  0  0  0  0  0  0  0
  -20.1647   10.8158  -34.9477 C   0  0  0  0  0  0  0  0  0  0  0  0
  -19.0642   11.0716  -35.7437 C   0  0  0  0  0  0  0  0  0  0  0  0
  -21.3973   11.2923  -32.8654 N   0  0  0  0  0  0  0  0  0  0  0  0
  -21.8214   10.1391  -32.3177 C   0  0  0  0  0  0  0  0  0  0  0  0
  -22.8733   10.4056  -31.5402 N   0  0  0  0  0  0  0  0  0  0  0  0
  -23.1449   11.7165  -31.5702 N   0  0  0  0  0  0  0  0  0  0  0  0
  -22.2239   12.2436  -32.3923 C   0  0  0  0  0  0  0  0  0  0  0  0
  -22.1340   13.4432  -32.6859 O   0  0  0  0  0  0  0  0  0  0  0  0
  -24.2200   12.3295  -30.8387 C   0  0  2  0  0  0  0  0  0  0  0  0
  -24.1078   12.2613  -29.3578 C   0  0  0  0  0  0  0  0  0  0  0  0
  -24.6913   10.9439  -28.9017 C   0  0  0  0  0  0  0  0  0  0  0  0
  -26.0809   11.0755  -28.9268 O   0  0  0  0  0  0  0  0  0  0  0  0
  -26.4938   11.7867  -30.0472 C   0  0  0  0  0  0  0  0  0  0  0  0
  -25.5259   11.6336  -31.2029 C   0  0  0  0  0  0  0  0  0  0  0  0
  -21.2581    8.8083  -32.5134 C   0  0  0  0  0  0  0  0  0  0  0  0
  -19.8885    8.6985  -32.7552 C   0  0  0  0  0  0  0  0  0  0  0  0
  -19.2828    7.4676  -32.9507 C   0  0  0  0  0  0  0  0  0  0  0  0
  -20.0571    6.3529  -32.9021 N   0  0  0  0  0  0  0  0  0  0  0  0
  -21.3758    6.4536  -32.6698 C   0  0  0  0  0  0  0  0  0  0  0  0
  -22.0158    7.6539  -32.4707 C   0  0  0  0  0  0  0  0  0  0  0  0
  -22.1402    5.2573  -32.6290 N   0  0  0  0  0  0  0  0  0  0  0  0
  -23.4772    5.2739  -32.0456 C   0  0  1  0  0  0  0  0  0  0  0  0
  -24.1206    3.8953  -32.1486 C   0  0  0  0  0  0  0  0  0  0  0  0
  -25.5942    4.0870  -31.8134 C   0  0  0  0  0  0  0  0  0  0  0  0
  -25.6886    4.4995  -30.3626 C   0  0  0  0  0  0  0  0  0  0  0  0
  -24.3376    4.7662  -29.7550 C   0  0  0  0  0  0  0  0  0  0  0  0
  -23.4489    5.6392  -30.5779 C   0  0  0  0  0  0  0  0  0  0  0  0
  1  2  2  0
  2  3  1  0
  3  4  2  0
  4  5  1  0
  1  6  1  0
  5  6  2  0
  3  7  1  0
  7  8  2  0
  8  9  1  0
  2 10  1  0
  9 10  2  0
  8 11  1  0
 11 12  1  0
 12 13  2  0
 13 14  1  0
 11 15  1  0
 14 15  1  0
 15 16  2  0
 17 14  1  6
 17 18  1  0
 18 19  1  0
 19 20  1  0
 20 21  1  0
 17 22  1  0
 21 22  1  0
 12 23  1  0
 23 24  2  0
 24 25  1  0
 25 26  2  0
 26 27  1  0
 23 28  1  0
 27 28  2  0
 27 29  1  0
 30 29  1  1
 30 31  1  0
 31 32  1  0
 32 33  1  0
 33 34  1  0
 30 35  1  0
 34 35  1  0
M  END
$$$$
