
     RDKit          3D

 35 40  0  0  0  0  0  0  0  0999 V2000
  -24.8476    4.5229  -30.5680 C   0  0  0  0  0  0  0  0  0  0  0  0
  -23.9496    5.6622  -30.8942 C   0  0  0  0  0  0  0  0  0  0  0  0
  -23.1324    5.4482  -32.1404 C   0  0  0  0  0  0  0  0  0  0  0  0
  -22.3893    4.1366  -32.1264 C   0  0  0  0  0  0  0  0  0  0  0  0
  -23.2698    2.9773  -31.7256 C   0  0  0  0  0  0  0  0  0  0  0  0
  -24.0566    3.2511  -30.4811 C   0  0  0  0  0  0  0  0  0  0  0  0
  -22.0771    6.5435  -32.1318 C   0  0  0  0  0  0  0  0  0  0  0  0
  -22.8155    7.8435  -32.3692 C   0  0  0  0  0  0  0  0  0  0  0  0
  -23.8134    8.1318  -31.2810 C   0  0  0  0  0  0  0  0  0  0  0  0
  -24.7288    6.9499  -31.0823 C   0  0  0  0  0  0  0  0  0  0  0  0
  -21.8830    8.8422  -32.6615 N   0  0  0  0  0  0  0  0  0  0  0  0
  -21.4701    9.6749  -31.5759 C   0  0  0  0  0  0  0  0  0  0  0  0
  -20.4913   10.5253  -32.2769 N   0  0  0  0  0  0  0  0  0  0  0  0
  -19.8772    9.6703  -33.1912 N   0  0  0  0  0  0  0  0  0  0  0  0
  -20.6407    8.4584  -33.2753 C   0  0  0  0  0  0  0  0  0  0  0  0
  -20.8109    7.9626  -34.5464 O   0  0  0  0  0  0  0  0  0  0  0  0
  -19.8219   10.3286  -34.4628 C   0  0  2  0  0  0  0  0  0  0  0  0
  -19.6117    9.4619  -35.6526 C   0  0  0  0  0  0  0  0  0  0  0  0
  -18.5625    8.4226  -35.2895 C   0  0  0  0  0  0  0  0  0  0  0  0
  -17.6252    9.0678  -34.4816 O   0  0  0  0  0  0  0  0  0  0  0  0
  -17.4273   10.3971  -34.8096 C   0  0  0  0  0  0  0  0  0  0  0  0
  -18.6086   11.2814  -34.4201 C   0  0  0  0  0  0  0  0  0  0  0  0
  -22.5894   10.5142  -31.0350 C   0  0  0  0  0  0  0  0  0  0  0  0
  -23.9135   10.1115  -31.6392 C   0  0  0  0  0  0  0  0  0  0  0  0
  -24.8614   11.2836  -31.3488 C   0  0  0  0  0  0  0  0  0  0  0  0
  -24.5280   12.3104  -32.3182 N   0  0  0  0  0  0  0  0  0  0  0  0
  -23.1352   12.6241  -32.3079 C   0  0  0  0  0  0  0  0  0  0  0  0
  -22.3440   11.9739  -31.2073 C   0  0  0  0  0  0  0  0  0  0  0  0
  -22.8458   14.0315  -32.2614 N   0  0  0  0  0  0  0  0  0  0  0  0
  -21.4569   14.3660  -32.2255 C   0  0  1  0  0  0  0  0  0  0  0  0
  -21.0570   15.5431  -33.0523 C   0  0  0  0  0  0  0  0  0  0  0  0
  -20.0085   16.3413  -32.3150 C   0  0  0  0  0  0  0  0  0  0  0  0
  -20.7106   17.0340  -31.1511 C   0  0  0  0  0  0  0  0  0  0  0  0
  -21.3130   15.9561  -30.2767 C   0  0  0  0  0  0  0  0  0  0  0  0
  -21.0278   14.5776  -30.7969 C   0  0  0  0  0  0  0  0  0  0  0  0
  2  1  1  0
  3  2  1  0
  4  3  1  0
  5  4  1  0
  6  1  1  0
  6  5  1  0
  7  3  1  0
  8  7  1  0
  9  8  1  0
 10  9  1  0
 10  2  1  0
 11  8  1  0
 12 11  1  0
 13 12  1  0
 14 13  1  0
 15 14  1  0
 15 11  1  0
 16 15  1  0
 17 14  1  1
 18 17  1  0
 19 18  1  0
 20 19  1  0
 21 20  1  0
 22 21  1  0
 22 17  1  0
 23 12  1  0
 24 23  1  0
 25 24  1  0
 26 25  1  0
 27 26  1  0
 28 27  1  0
 28 23  1  0
 29 27  1  0
 30 29  1  1
 31 30  1  0
 32 31  1  0
 33 32  1  0
 34 33  1  0
 35 34  1  0
 35 30  1  0
M  END
$$$$
