3oy1
     RDKit          3D

 35 40  0  0  0  0  0  0  0  0999 V2000
  -17.0056   12.2217  -36.1869 C   0  0  0  0  0  0  0  0  0  0  0  0
  -18.0838   11.9872  -35.3810 C   0  0  0  0  0  0  0  0  0  0  0  0
  -18.2264   12.6543  -34.1845 C   0  0  0  0  0  0  0  0  0  0  0  0
  -17.2955   13.5753  -33.7584 C   0  0  0  0  0  0  0  0  0  0  0  0
  -16.2056   13.8123  -34.5731 C   0  0  0  0  0  0  0  0  0  0  0  0
  -16.0560   13.1479  -35.7731 C   0  0  0  0  0  0  0  0  0  0  0  0
  -19.3279   12.4006  -33.3834 C   0  0  0  0  0  0  0  0  0  0  0  0
  -20.3046   11.4799  -33.7592 C   0  0  0  0  0  0  0  0  0  0  0  0
  -20.1651   10.8158  -34.9475 C   0  0  0  0  0  0  0  0  0  0  0  0
  -19.0648   11.0718  -35.7439 C   0  0  0  0  0  0  0  0  0  0  0  0
  -21.3970   11.2922  -32.8648 N   0  0  0  0  0  0  0  0  0  0  0  0
  -21.8209   10.1389  -32.3170 C   0  0  0  0  0  0  0  0  0  0  0  0
  -22.8724   10.4053  -31.5391 N   0  0  0  0  0  0  0  0  0  0  0  0
  -23.1441   11.7162  -31.5690 N   0  0  0  0  0  0  0  0  0  0  0  0
  -22.2234   12.2434  -32.3913 C   0  0  0  0  0  0  0  0  0  0  0  0
  -22.1337   13.4431  -32.6849 O   0  0  0  0  0  0  0  0  0  0  0  0
  -24.2190   12.3291  -30.8371 C   0  0  2  0  0  0  0  0  0  0  0  0
  -24.1077   12.2584  -29.3562 C   0  0  0  0  0  0  0  0  0  0  0  0
  -24.6928   10.9409  -28.9026 C   0  0  0  0  0  0  0  0  0  0  0  0
  -26.0822   11.0739  -28.9282 O   0  0  0  0  0  0  0  0  0  0  0  0
  -26.4938   11.7873  -30.0478 C   0  0  0  0  0  0  0  0  0  0  0  0
  -25.5255   11.6351  -31.2031 C   0  0  0  0  0  0  0  0  0  0  0  0
  -21.2575    8.8081  -32.5130 C   0  0  0  0  0  0  0  0  0  0  0  0
  -19.8881    8.6984  -32.7558 C   0  0  0  0  0  0  0  0  0  0  0  0
  -19.2824    7.4676  -32.9515 C   0  0  0  0  0  0  0  0  0  0  0  0
  -20.0566    6.3528  -32.9022 N   0  0  0  0  0  0  0  0  0  0  0  0
  -21.3751    6.4534  -32.6688 C   0  0  0  0  0  0  0  0  0  0  0  0
  -22.0150    7.6537  -32.4695 C   0  0  0  0  0  0  0  0  0  0  0  0
  -22.1393    5.2570  -32.6273 N   0  0  0  0  0  0  0  0  0  0  0  0
  -23.4767    5.2741  -32.0450 C   0  0  1  0  0  0  0  0  0  0  0  0
  -24.1208    3.8959  -32.1492 C   0  0  0  0  0  0  0  0  0  0  0  0
  -25.5946    4.0882  -31.8151 C   0  0  0  0  0  0  0  0  0  0  0  0
  -25.6898    4.5000  -30.3641 C   0  0  0  0  0  0  0  0  0  0  0  0
  -24.3392    4.7656  -29.7553 C   0  0  0  0  0  0  0  0  0  0  0  0
  -23.4494    5.6385  -30.5771 C   0  0  0  0  0  0  0  0  0  0  0  0
  1  2  2  0
  2  3  1  0
  3  4  2  0
  4  5  1  0
  1  6  1  0
  5  6  2  0
  3  7  1  0
  7  8  2  0
  8  9  1  0
  2 10  1  0
  9 10  2  0
  8 11  1  0
 11 12  1  0
 12 13  2  0
 13 14  1  0
 11 15  1  0
 14 15  1  0
 15 16  2  0
 17 14  1  6
 17 18  1  0
 18 19  1  0
 19 20  1  0
 20 21  1  0
 17 22  1  0
 21 22  1  0
 12 23  1  0
 23 24  2  0
 24 25  1  0
 25 26  2  0
 26 27  1  0
 23 28  1  0
 27 28  2  0
 27 29  1  0
 30 29  1  1
 30 31  1  0
 31 32  1  0
 32 33  1  0
 33 34  1  0
 30 35  1  0
 34 35  1  0
M  END
$$$$
