3oy1
     RDKit          3D

 35 40  0  0  0  0  0  0  0  0999 V2000
  -16.6034   11.8233  -35.5939 C   0  0  0  0  0  0  0  0  0  0  0  0
  -17.7745   11.6798  -34.9044 C   0  0  0  0  0  0  0  0  0  0  0  0
  -18.0276   12.4366  -33.7819 C   0  0  0  0  0  0  0  0  0  0  0  0
  -17.1177   13.3590  -33.3155 C   0  0  0  0  0  0  0  0  0  0  0  0
  -15.9340   13.5041  -34.0124 C   0  0  0  0  0  0  0  0  0  0  0  0
  -15.6734   12.7496  -35.1377 C   0  0  0  0  0  0  0  0  0  0  0  0
  -19.2218   12.2742  -33.0986 C   0  0  0  0  0  0  0  0  0  0  0  0
  -20.1829   11.3570  -33.5206 C   0  0  0  0  0  0  0  0  0  0  0  0
  -19.9336   10.6040  -34.6357 C   0  0  0  0  0  0  0  0  0  0  0  0
  -18.7411   10.7690  -35.3146 C   0  0  0  0  0  0  0  0  0  0  0  0
  -21.3762   11.2670  -32.7485 N   0  0  0  0  0  0  0  0  0  0  0  0
  -21.9112   10.1667  -32.1890 C   0  0  0  0  0  0  0  0  0  0  0  0
  -23.0302   10.5209  -31.5533 N   0  0  0  0  0  0  0  0  0  0  0  0
  -23.2367   11.8371  -31.6877 N   0  0  0  0  0  0  0  0  0  0  0  0
  -22.2063   12.2768  -32.4273 C   0  0  0  0  0  0  0  0  0  0  0  0
  -22.0295   13.4519  -32.7756 O   0  0  0  0  0  0  0  0  0  0  0  0
  -24.3579   12.5349  -31.1198 C   0  0  2  0  0  0  0  0  0  0  0  0
  -24.0238   13.5495  -30.0857 C   0  0  0  0  0  0  0  0  0  0  0  0
  -23.9226   12.8464  -28.7518 C   0  0  0  0  0  0  0  0  0  0  0  0
  -25.2250   12.6191  -28.3035 O   0  0  0  0  0  0  0  0  0  0  0  0
  -26.0516   12.2298  -29.3508 C   0  0  0  0  0  0  0  0  0  0  0  0
  -25.2805   11.5250  -30.4482 C   0  0  0  0  0  0  0  0  0  0  0  0
  -21.3907    8.8055  -32.2439 C   0  0  0  0  0  0  0  0  0  0  0  0
  -20.1348    8.5998  -32.8153 C   0  0  0  0  0  0  0  0  0  0  0  0
  -19.5758    7.3348  -32.9023 C   0  0  0  0  0  0  0  0  0  0  0  0
  -20.2824    6.2826  -32.4144 N   0  0  0  0  0  0  0  0  0  0  0  0
  -21.4917    6.4757  -31.8635 C   0  0  0  0  0  0  0  0  0  0  0  0
  -22.0819    7.7127  -31.7575 C   0  0  0  0  0  0  0  0  0  0  0  0
  -22.1889    5.3418  -31.3683 N   0  0  0  0  0  0  0  0  0  0  0  0
  -23.5518    5.4925  -30.8704 C   0  0  1  0  0  0  0  0  0  0  0  0
  -24.5487    5.4427  -32.0231 C   0  0  0  0  0  0  0  0  0  0  0  0
  -25.8802    5.9177  -31.4554 C   0  0  0  0  0  0  0  0  0  0  0  0
  -26.3415    4.8960  -30.4419 C   0  0  0  0  0  0  0  0  0  0  0  0
  -25.2973    3.8460  -30.1724 C   0  0  0  0  0  0  0  0  0  0  0  0
  -23.9293    4.3845  -29.9122 C   0  0  0  0  0  0  0  0  0  0  0  0
  1  2  2  0
  2  3  1  0
  3  4  2  0
  4  5  1  0
  1  6  1  0
  5  6  2  0
  3  7  1  0
  7  8  2  0
  8  9  1  0
  2 10  1  0
  9 10  2  0
  8 11  1  0
 11 12  1  0
 12 13  2  0
 13 14  1  0
 11 15  1  0
 14 15  1  0
 15 16  2  0
 17 14  1  1
 17 18  1  0
 18 19  1  0
 19 20  1  0
 20 21  1  0
 17 22  1  0
 21 22  1  0
 12 23  1  0
 23 24  2  0
 24 25  1  0
 25 26  2  0
 26 27  1  0
 23 28  1  0
 27 28  2  0
 27 29  1  0
 30 29  1  6
 30 31  1  0
 31 32  1  0
 32 33  1  0
 33 34  1  0
 30 35  1  0
 34 35  1  0
M  END
$$$$
