3oy1
     RDKit          3D

 35 40  0  0  0  0  0  0  0  0999 V2000
  -16.6368   12.2697  -35.2285 C   0  0  0  0  0  0  0  0  0  0  0  0
  -17.7805   11.9846  -34.5372 C   0  0  0  0  0  0  0  0  0  0  0  0
  -18.7865   11.2434  -35.1162 C   0  0  0  0  0  0  0  0  0  0  0  0
  -18.6791   10.7653  -36.4031 C   0  0  0  0  0  0  0  0  0  0  0  0
  -17.5230   11.0534  -37.1019 C   0  0  0  0  0  0  0  0  0  0  0  0
  -16.5109   11.7953  -36.5285 C   0  0  0  0  0  0  0  0  0  0  0  0
  -19.9375   10.9666  -34.3964 C   0  0  0  0  0  0  0  0  0  0  0  0
  -20.1061   11.4222  -33.0899 C   0  0  0  0  0  0  0  0  0  0  0  0
  -19.1079   12.1589  -32.5125 C   0  0  0  0  0  0  0  0  0  0  0  0
  -17.9613   12.4330  -33.2339 C   0  0  0  0  0  0  0  0  0  0  0  0
  -21.3259   11.0832  -32.4375 N   0  0  0  0  0  0  0  0  0  0  0  0
  -21.8001    9.8528  -32.1710 C   0  0  0  0  0  0  0  0  0  0  0  0
  -22.9739    9.9812  -31.5484 N   0  0  0  0  0  0  0  0  0  0  0  0
  -23.2761   11.2776  -31.4029 N   0  0  0  0  0  0  0  0  0  0  0  0
  -22.2478   11.9386  -31.9574 C   0  0  0  0  0  0  0  0  0  0  0  0
  -22.1466   13.1709  -32.0256 O   0  0  0  0  0  0  0  0  0  0  0  0
  -24.4757   11.7551  -30.7708 C   0  0  2  0  0  0  0  0  0  0  0  0
  -25.3908   12.5383  -31.6423 C   0  0  0  0  0  0  0  0  0  0  0  0
  -24.9368   13.9797  -31.6268 C   0  0  0  0  0  0  0  0  0  0  0  0
  -25.3788   14.5403  -30.4271 O   0  0  0  0  0  0  0  0  0  0  0  0
  -25.2307   13.6449  -29.3745 C   0  0  0  0  0  0  0  0  0  0  0  0
  -24.0943   12.6720  -29.6148 C   0  0  0  0  0  0  0  0  0  0  0  0
  -21.1722    8.5757  -32.4898 C   0  0  0  0  0  0  0  0  0  0  0  0
  -19.8751    8.5860  -33.0031 C   0  0  0  0  0  0  0  0  0  0  0  0
  -19.2147    7.4122  -33.3292 C   0  0  0  0  0  0  0  0  0  0  0  0
  -19.8618    6.2336  -33.1376 N   0  0  0  0  0  0  0  0  0  0  0  0
  -21.1104    6.2188  -32.6438 C   0  0  0  0  0  0  0  0  0  0  0  0
  -21.8008    7.3591  -32.3077 C   0  0  0  0  0  0  0  0  0  0  0  0
  -21.7422    4.9597  -32.4627 N   0  0  0  0  0  0  0  0  0  0  0  0
  -23.1103    4.9039  -31.9595 C   0  0  1  0  0  0  0  0  0  0  0  0
  -23.6409    3.4755  -32.0163 C   0  0  0  0  0  0  0  0  0  0  0  0
  -25.1428    3.5694  -31.7789 C   0  0  0  0  0  0  0  0  0  0  0  0
  -25.3578    4.0531  -30.3634 C   0  0  0  0  0  0  0  0  0  0  0  0
  -24.0710    4.4582  -29.6959 C   0  0  0  0  0  0  0  0  0  0  0  0
  -23.2008    5.3512  -30.5172 C   0  0  0  0  0  0  0  0  0  0  0  0
  1  2  2  0
  2  3  1  0
  3  4  2  0
  4  5  1  0
  1  6  1  0
  5  6  2  0
  3  7  1  0
  7  8  2  0
  8  9  1  0
  2 10  1  0
  9 10  2  0
  8 11  1  0
 11 12  1  0
 12 13  2  0
 13 14  1  0
 11 15  1  0
 14 15  1  0
 15 16  2  0
 17 14  1  6
 17 18  1  0
 18 19  1  0
 19 20  1  0
 20 21  1  0
 17 22  1  0
 21 22  1  0
 12 23  1  0
 23 24  2  0
 24 25  1  0
 25 26  2  0
 26 27  1  0
 23 28  1  0
 27 28  2  0
 27 29  1  0
 30 29  1  1
 30 31  1  0
 31 32  1  0
 32 33  1  0
 33 34  1  0
 30 35  1  0
 34 35  1  0
M  END
$$$$
