3oy1
     RDKit          3D

 35 40  0  0  0  0  0  0  0  0999 V2000
  -16.4438   11.5542  -35.7478 C   0  0  0  0  0  0  0  0  0  0  0  0
  -17.5243   11.5234  -34.9119 C   0  0  0  0  0  0  0  0  0  0  0  0
  -18.7357   11.0322  -35.3455 C   0  0  0  0  0  0  0  0  0  0  0  0
  -18.9028   10.5573  -36.6273 C   0  0  0  0  0  0  0  0  0  0  0  0
  -17.8105   10.5884  -37.4722 C   0  0  0  0  0  0  0  0  0  0  0  0
  -16.5938   11.0790  -37.0449 C   0  0  0  0  0  0  0  0  0  0  0  0
  -19.8178   11.0107  -34.4806 C   0  0  0  0  0  0  0  0  0  0  0  0
  -19.7124   11.4772  -33.1714 C   0  0  0  0  0  0  0  0  0  0  0  0
  -18.5098   11.9658  -32.7383 C   0  0  0  0  0  0  0  0  0  0  0  0
  -17.4327   11.9855  -33.6042 C   0  0  0  0  0  0  0  0  0  0  0  0
  -20.8835   11.4113  -32.3634 N   0  0  0  0  0  0  0  0  0  0  0  0
  -21.4833   10.3105  -31.8753 C   0  0  0  0  0  0  0  0  0  0  0  0
  -22.5504   10.6919  -31.1698 N   0  0  0  0  0  0  0  0  0  0  0  0
  -22.6589   12.0265  -31.1883 N   0  0  0  0  0  0  0  0  0  0  0  0
  -21.6222   12.4493  -31.9289 C   0  0  0  0  0  0  0  0  0  0  0  0
  -21.3666   13.6332  -32.1868 O   0  0  0  0  0  0  0  0  0  0  0  0
  -23.7038   12.7553  -30.5223 C   0  0  2  0  0  0  0  0  0  0  0  0
  -23.9519   12.3703  -29.1078 C   0  0  0  0  0  0  0  0  0  0  0  0
  -24.9090   11.2008  -29.0992 C   0  0  0  0  0  0  0  0  0  0  0  0
  -26.1883   11.7107  -29.3276 O   0  0  0  0  0  0  0  0  0  0  0  0
  -26.1606   12.7129  -30.2902 C   0  0  0  0  0  0  0  0  0  0  0  0
  -25.0152   12.5295  -31.2650 C   0  0  0  0  0  0  0  0  0  0  0  0
  -21.0716    8.9239  -32.0612 C   0  0  0  0  0  0  0  0  0  0  0  0
  -19.7628    8.6718  -32.4732 C   0  0  0  0  0  0  0  0  0  0  0  0
  -19.3005    7.3805  -32.6705 C   0  0  0  0  0  0  0  0  0  0  0  0
  -20.1563    6.3487  -32.4527 N   0  0  0  0  0  0  0  0  0  0  0  0
  -21.4170    6.5865  -32.0560 C   0  0  0  0  0  0  0  0  0  0  0  0
  -21.9153    7.8508  -31.8488 C   0  0  0  0  0  0  0  0  0  0  0  0
  -22.2713    5.4723  -31.8422 N   0  0  0  0  0  0  0  0  0  0  0  0
  -23.5905    5.6760  -31.2536 C   0  0  1  0  0  0  0  0  0  0  0  0
  -24.4524    4.4311  -31.4339 C   0  0  0  0  0  0  0  0  0  0  0  0
  -25.8759    4.8442  -31.0825 C   0  0  0  0  0  0  0  0  0  0  0  0
  -25.9092    5.1821  -29.6099 C   0  0  0  0  0  0  0  0  0  0  0  0
  -24.5363    5.1860  -28.9930 C   0  0  0  0  0  0  0  0  0  0  0  0
  -23.5107    5.9461  -29.7674 C   0  0  0  0  0  0  0  0  0  0  0  0
  1  2  2  0
  2  3  1  0
  3  4  2  0
  4  5  1  0
  1  6  1  0
  5  6  2  0
  3  7  1  0
  7  8  2  0
  8  9  1  0
  2 10  1  0
  9 10  2  0
  8 11  1  0
 11 12  1  0
 12 13  2  0
 13 14  1  0
 11 15  1  0
 14 15  1  0
 15 16  2  0
 17 14  1  6
 17 18  1  0
 18 19  1  0
 19 20  1  0
 20 21  1  0
 17 22  1  0
 21 22  1  0
 12 23  1  0
 23 24  2  0
 24 25  1  0
 25 26  2  0
 26 27  1  0
 23 28  1  0
 27 28  2  0
 27 29  1  0
 30 29  1  1
 30 31  1  0
 31 32  1  0
 32 33  1  0
 33 34  1  0
 30 35  1  0
 34 35  1  0
M  END
$$$$
