3oy1
     RDKit          3D

 35 40  0  0  0  0  0  0  0  0999 V2000
  -17.5668   12.0494  -36.2867 C   0  0  0  0  0  0  0  0  0  0  0  0
  -18.4830   11.8205  -35.2991 C   0  0  0  0  0  0  0  0  0  0  0  0
  -18.2759   12.2956  -34.0231 C   0  0  0  0  0  0  0  0  0  0  0  0
  -17.1470   13.0133  -33.6966 C   0  0  0  0  0  0  0  0  0  0  0  0
  -16.2208   13.2447  -34.6948 C   0  0  0  0  0  0  0  0  0  0  0  0
  -16.4214   12.7720  -35.9754 C   0  0  0  0  0  0  0  0  0  0  0  0
  -19.2186   12.0515  -33.0375 C   0  0  0  0  0  0  0  0  0  0  0  0
  -20.3817   11.3314  -33.3052 C   0  0  0  0  0  0  0  0  0  0  0  0
  -20.5897   10.8584  -34.5723 C   0  0  0  0  0  0  0  0  0  0  0  0
  -19.6469   11.1040  -35.5527 C   0  0  0  0  0  0  0  0  0  0  0  0
  -21.2865   11.1356  -32.2229 N   0  0  0  0  0  0  0  0  0  0  0  0
  -21.6512    9.9704  -31.6581 C   0  0  0  0  0  0  0  0  0  0  0  0
  -22.5165   10.2326  -30.6761 N   0  0  0  0  0  0  0  0  0  0  0  0
  -22.7245   11.5526  -30.5889 N   0  0  0  0  0  0  0  0  0  0  0  0
  -21.9572   12.0896  -31.5506 C   0  0  0  0  0  0  0  0  0  0  0  0
  -21.8679   13.2996  -31.7983 O   0  0  0  0  0  0  0  0  0  0  0  0
  -23.6047   12.1640  -29.6308 C   0  0  2  0  0  0  0  0  0  0  0  0
  -25.0366   12.2274  -30.0258 C   0  0  0  0  0  0  0  0  0  0  0  0
  -25.2424   13.4762  -30.8515 C   0  0  0  0  0  0  0  0  0  0  0  0
  -25.2979   14.5539  -29.9659 O   0  0  0  0  0  0  0  0  0  0  0  0
  -24.3590   14.4134  -28.9507 C   0  0  0  0  0  0  0  0  0  0  0  0
  -23.1596   13.6027  -29.3977 C   0  0  0  0  0  0  0  0  0  0  0  0
  -21.2026    8.6321  -32.0250 C   0  0  0  0  0  0  0  0  0  0  0  0
  -19.9724    8.5001  -32.6696 C   0  0  0  0  0  0  0  0  0  0  0  0
  -19.4812    7.2609  -33.0482 C   0  0  0  0  0  0  0  0  0  0  0  0
  -20.2292    6.1603  -32.7769 N   0  0  0  0  0  0  0  0  0  0  0  0
  -21.4139    6.2824  -32.1566 C   0  0  0  0  0  0  0  0  0  0  0  0
  -21.9374    7.4916  -31.7645 C   0  0  0  0  0  0  0  0  0  0  0  0
  -22.1566    5.1002  -31.8963 N   0  0  0  0  0  0  0  0  0  0  0  0
  -23.3770    5.1744  -31.1005 C   0  0  1  0  0  0  0  0  0  0  0  0
  -24.5350    5.6903  -31.9478 C   0  0  0  0  0  0  0  0  0  0  0  0
  -25.6571    6.0287  -30.9746 C   0  0  0  0  0  0  0  0  0  0  0  0
  -26.1263    4.7384  -30.3432 C   0  0  0  0  0  0  0  0  0  0  0  0
  -25.2534    3.5697  -30.7142 C   0  0  0  0  0  0  0  0  0  0  0  0
  -23.7885    3.8192  -30.5691 C   0  0  0  0  0  0  0  0  0  0  0  0
  1  2  2  0
  2  3  1  0
  3  4  2  0
  4  5  1  0
  1  6  1  0
  5  6  2  0
  3  7  1  0
  7  8  2  0
  8  9  1  0
  2 10  1  0
  9 10  2  0
  8 11  1  0
 11 12  1  0
 12 13  2  0
 13 14  1  0
 11 15  1  0
 14 15  1  0
 15 16  2  0
 17 14  1  6
 17 18  1  0
 18 19  1  0
 19 20  1  0
 20 21  1  0
 17 22  1  0
 21 22  1  0
 12 23  1  0
 23 24  2  0
 24 25  1  0
 25 26  2  0
 26 27  1  0
 23 28  1  0
 27 28  2  0
 27 29  1  0
 30 29  1  6
 30 31  1  0
 31 32  1  0
 32 33  1  0
 33 34  1  0
 30 35  1  0
 34 35  1  0
M  END
$$$$
