3oy1
     RDKit          3D

 35 40  0  0  0  0  0  0  0  0999 V2000
  -16.4088   12.6282  -34.8088 C   0  0  0  0  0  0  0  0  0  0  0  0
  -17.5929   12.3331  -34.1940 C   0  0  0  0  0  0  0  0  0  0  0  0
  -18.5953   11.6785  -34.8746 C   0  0  0  0  0  0  0  0  0  0  0  0
  -18.4437   11.2994  -36.1898 C   0  0  0  0  0  0  0  0  0  0  0  0
  -17.2468   11.5977  -36.8113 C   0  0  0  0  0  0  0  0  0  0  0  0
  -16.2380   12.2533  -36.1359 C   0  0  0  0  0  0  0  0  0  0  0  0
  -19.7877   11.3896  -34.2310 C   0  0  0  0  0  0  0  0  0  0  0  0
  -20.0020   11.7470  -32.9009 C   0  0  0  0  0  0  0  0  0  0  0  0
  -19.0075   12.3976  -32.2225 C   0  0  0  0  0  0  0  0  0  0  0  0
  -17.8194   12.6840  -32.8681 C   0  0  0  0  0  0  0  0  0  0  0  0
  -21.2621   11.4041  -32.3325 N   0  0  0  0  0  0  0  0  0  0  0  0
  -21.7271   10.1742  -32.0480 C   0  0  0  0  0  0  0  0  0  0  0  0
  -22.9500   10.2980  -31.5273 N   0  0  0  0  0  0  0  0  0  0  0  0
  -23.2933   11.5908  -31.4661 N   0  0  0  0  0  0  0  0  0  0  0  0
  -22.2395   12.2544  -31.9670 C   0  0  0  0  0  0  0  0  0  0  0  0
  -22.1621   13.4848  -32.0837 O   0  0  0  0  0  0  0  0  0  0  0  0
  -24.5508   12.0630  -30.9539 C   0  0  2  0  0  0  0  0  0  0  0  0
  -24.9246   13.4466  -31.3494 C   0  0  0  0  0  0  0  0  0  0  0  0
  -24.2877   14.4047  -30.3694 C   0  0  0  0  0  0  0  0  0  0  0  0
  -25.0602   14.3823  -29.2068 O   0  0  0  0  0  0  0  0  0  0  0  0
  -25.4715   13.0890  -28.9067 C   0  0  0  0  0  0  0  0  0  0  0  0
  -24.5006   12.0506  -29.4309 C   0  0  0  0  0  0  0  0  0  0  0  0
  -21.0457    8.9018  -32.2569 C   0  0  0  0  0  0  0  0  0  0  0  0
  -19.7068    8.9246  -32.6478 C   0  0  0  0  0  0  0  0  0  0  0  0
  -18.9946    7.7559  -32.8649 C   0  0  0  0  0  0  0  0  0  0  0  0
  -19.6320    6.5699  -32.6878 N   0  0  0  0  0  0  0  0  0  0  0  0
  -20.9208    6.5430  -32.3115 C   0  0  0  0  0  0  0  0  0  0  0  0
  -21.6631    7.6779  -32.0859 C   0  0  0  0  0  0  0  0  0  0  0  0
  -21.5403    5.2765  -32.1402 N   0  0  0  0  0  0  0  0  0  0  0  0
  -22.9460    5.2061  -31.7565 C   0  0  1  0  0  0  0  0  0  0  0  0
  -23.7077    4.2739  -32.6924 C   0  0  0  0  0  0  0  0  0  0  0  0
  -25.1873    4.5097  -32.4170 C   0  0  0  0  0  0  0  0  0  0  0  0
  -25.4765    4.0390  -31.0104 C   0  0  0  0  0  0  0  0  0  0  0  0
  -24.2245    3.6615  -30.2650 C   0  0  0  0  0  0  0  0  0  0  0  0
  -23.1229    4.6653  -30.3549 C   0  0  0  0  0  0  0  0  0  0  0  0
  1  2  2  0
  2  3  1  0
  3  4  2  0
  4  5  1  0
  1  6  1  0
  5  6  2  0
  3  7  1  0
  7  8  2  0
  8  9  1  0
  2 10  1  0
  9 10  2  0
  8 11  1  0
 11 12  1  0
 12 13  2  0
 13 14  1  0
 11 15  1  0
 14 15  1  0
 15 16  2  0
 17 14  1  6
 17 18  1  0
 18 19  1  0
 19 20  1  0
 20 21  1  0
 17 22  1  0
 21 22  1  0
 12 23  1  0
 23 24  2  0
 24 25  1  0
 25 26  2  0
 26 27  1  0
 23 28  1  0
 27 28  2  0
 27 29  1  0
 30 29  1  6
 30 31  1  0
 31 32  1  0
 32 33  1  0
 33 34  1  0
 30 35  1  0
 34 35  1  0
M  END
$$$$
