3oy1
     RDKit          3D

 35 40  0  0  0  0  0  0  0  0999 V2000
  -15.9161   11.7377  -34.8750 C   0  0  0  0  0  0  0  0  0  0  0  0
  -17.1551   11.6606  -34.3039 C   0  0  0  0  0  0  0  0  0  0  0  0
  -18.2530   12.2105  -34.9276 C   0  0  0  0  0  0  0  0  0  0  0  0
  -18.1449   12.8535  -36.1405 C   0  0  0  0  0  0  0  0  0  0  0  0
  -16.8925   12.9314  -36.7179 C   0  0  0  0  0  0  0  0  0  0  0  0
  -15.7880   12.3830  -36.0990 C   0  0  0  0  0  0  0  0  0  0  0  0
  -19.4996   12.1204  -34.3300 C   0  0  0  0  0  0  0  0  0  0  0  0
  -19.6741   11.4823  -33.1030 C   0  0  0  0  0  0  0  0  0  0  0  0
  -18.5847   10.9352  -32.4814 C   0  0  0  0  0  0  0  0  0  0  0  0
  -17.3428   11.0272  -33.0809 C   0  0  0  0  0  0  0  0  0  0  0  0
  -20.9961   11.4442  -32.5744 N   0  0  0  0  0  0  0  0  0  0  0  0
  -21.7174   10.3577  -32.2443 C   0  0  0  0  0  0  0  0  0  0  0  0
  -22.9037   10.7645  -31.7870 N   0  0  0  0  0  0  0  0  0  0  0  0
  -22.9706   12.1017  -31.8126 N   0  0  0  0  0  0  0  0  0  0  0  0
  -21.7853   12.4998  -32.3008 C   0  0  0  0  0  0  0  0  0  0  0  0
  -21.4482   13.6776  -32.4812 O   0  0  0  0  0  0  0  0  0  0  0  0
  -24.1175   12.8553  -31.3846 C   0  0  2  0  0  0  0  0  0  0  0  0
  -23.8947   13.7569  -30.2236 C   0  0  0  0  0  0  0  0  0  0  0  0
  -24.0856   12.9518  -28.9589 C   0  0  0  0  0  0  0  0  0  0  0  0
  -25.4604   12.8120  -28.7605 O   0  0  0  0  0  0  0  0  0  0  0  0
  -26.1160   12.5772  -29.9633 C   0  0  0  0  0  0  0  0  0  0  0  0
  -25.2194   11.8872  -30.9711 C   0  0  0  0  0  0  0  0  0  0  0  0
  -21.3110    8.9612  -32.3519 C   0  0  0  0  0  0  0  0  0  0  0  0
  -20.0405    8.6786  -32.8541 C   0  0  0  0  0  0  0  0  0  0  0  0
  -19.5855    7.3763  -32.9852 C   0  0  0  0  0  0  0  0  0  0  0  0
  -20.4102    6.3643  -32.6106 N   0  0  0  0  0  0  0  0  0  0  0  0
  -21.6339    6.6314  -32.1266 C   0  0  0  0  0  0  0  0  0  0  0  0
  -22.1237    7.9076  -31.9804 C   0  0  0  0  0  0  0  0  0  0  0  0
  -22.4566    5.5369  -31.7495 N   0  0  0  0  0  0  0  0  0  0  0  0
  -23.8669    5.7623  -31.4519 C   0  0  1  0  0  0  0  0  0  0  0  0
  -24.6962    4.5460  -31.8491 C   0  0  0  0  0  0  0  0  0  0  0  0
  -26.1529    4.9890  -31.7992 C   0  0  0  0  0  0  0  0  0  0  0  0
  -26.4949    5.2923  -30.3588 C   0  0  0  0  0  0  0  0  0  0  0  0
  -25.2871    5.2442  -29.4620 C   0  0  0  0  0  0  0  0  0  0  0  0
  -24.1030    5.9945  -29.9758 C   0  0  0  0  0  0  0  0  0  0  0  0
  1  2  2  0
  2  3  1  0
  3  4  2  0
  4  5  1  0
  1  6  1  0
  5  6  2  0
  3  7  1  0
  7  8  2  0
  8  9  1  0
  2 10  1  0
  9 10  2  0
  8 11  1  0
 11 12  1  0
 12 13  2  0
 13 14  1  0
 11 15  1  0
 14 15  1  0
 15 16  2  0
 17 14  1  1
 17 18  1  0
 18 19  1  0
 19 20  1  0
 20 21  1  0
 17 22  1  0
 21 22  1  0
 12 23  1  0
 23 24  2  0
 24 25  1  0
 25 26  2  0
 26 27  1  0
 23 28  1  0
 27 28  2  0
 27 29  1  0
 30 29  1  1
 30 31  1  0
 31 32  1  0
 32 33  1  0
 33 34  1  0
 30 35  1  0
 34 35  1  0
M  END
$$$$
