3oy1
     RDKit          3D

 35 40  0  0  0  0  0  0  0  0999 V2000
  -16.4851   12.0948  -35.3907 C   0  0  0  0  0  0  0  0  0  0  0  0
  -17.6475   11.9486  -34.6874 C   0  0  0  0  0  0  0  0  0  0  0  0
  -18.7876   11.4803  -35.3017 C   0  0  0  0  0  0  0  0  0  0  0  0
  -18.7995   11.1442  -36.6371 C   0  0  0  0  0  0  0  0  0  0  0  0
  -17.6246   11.2919  -37.3481 C   0  0  0  0  0  0  0  0  0  0  0  0
  -16.4784   11.7605  -36.7394 C   0  0  0  0  0  0  0  0  0  0  0  0
  -19.9550   11.3402  -34.5688 C   0  0  0  0  0  0  0  0  0  0  0  0
  -20.0070   11.6635  -33.2140 C   0  0  0  0  0  0  0  0  0  0  0  0
  -18.8754   12.1290  -32.6014 C   0  0  0  0  0  0  0  0  0  0  0  0
  -17.7128   12.2674  -33.3359 C   0  0  0  0  0  0  0  0  0  0  0  0
  -21.2551   11.4834  -32.5520 N   0  0  0  0  0  0  0  0  0  0  0  0
  -21.8160   10.3258  -32.1579 C   0  0  0  0  0  0  0  0  0  0  0  0
  -22.9858   10.6025  -31.5774 N   0  0  0  0  0  0  0  0  0  0  0  0
  -23.1999   11.9244  -31.5851 N   0  0  0  0  0  0  0  0  0  0  0  0
  -22.1218   12.4476  -32.1899 C   0  0  0  0  0  0  0  0  0  0  0  0
  -21.9352   13.6545  -32.3947 O   0  0  0  0  0  0  0  0  0  0  0  0
  -24.3714   12.5500  -31.0350 C   0  0  2  0  0  0  0  0  0  0  0  0
  -24.4296   12.6075  -29.5505 C   0  0  0  0  0  0  0  0  0  0  0  0
  -25.0200   11.3087  -29.0519 C   0  0  0  0  0  0  0  0  0  0  0  0
  -26.4008   11.3804  -29.2448 O   0  0  0  0  0  0  0  0  0  0  0  0
  -26.7033   11.9801  -30.4616 C   0  0  0  0  0  0  0  0  0  0  0  0
  -25.6036   11.7734  -31.4832 C   0  0  0  0  0  0  0  0  0  0  0  0
  -21.2736    8.9816  -32.3181 C   0  0  0  0  0  0  0  0  0  0  0  0
  -19.9489    8.8478  -32.7347 C   0  0  0  0  0  0  0  0  0  0  0  0
  -19.3654    7.6031  -32.9087 C   0  0  0  0  0  0  0  0  0  0  0  0
  -20.1166    6.4987  -32.6629 N   0  0  0  0  0  0  0  0  0  0  0  0
  -21.3921    6.6224  -32.2617 C   0  0  0  0  0  0  0  0  0  0  0  0
  -22.0088    7.8371  -32.0770 C   0  0  0  0  0  0  0  0  0  0  0  0
  -22.1338    5.4360  -32.0183 N   0  0  0  0  0  0  0  0  0  0  0  0
  -23.5232    5.5293  -31.5834 C   0  0  1  0  0  0  0  0  0  0  0  0
  -24.2537    4.2175  -31.8489 C   0  0  0  0  0  0  0  0  0  0  0  0
  -25.7370    4.5109  -31.6631 C   0  0  0  0  0  0  0  0  0  0  0  0
  -25.9636    4.8433  -30.2064 C   0  0  0  0  0  0  0  0  0  0  0  0
  -24.6740    4.9603  -29.4393 C   0  0  0  0  0  0  0  0  0  0  0  0
  -23.6339    5.8035  -30.0998 C   0  0  0  0  0  0  0  0  0  0  0  0
  1  2  2  0
  2  3  1  0
  3  4  2  0
  4  5  1  0
  1  6  1  0
  5  6  2  0
  3  7  1  0
  7  8  2  0
  8  9  1  0
  2 10  1  0
  9 10  2  0
  8 11  1  0
 11 12  1  0
 12 13  2  0
 13 14  1  0
 11 15  1  0
 14 15  1  0
 15 16  2  0
 17 14  1  1
 17 18  1  0
 18 19  1  0
 19 20  1  0
 20 21  1  0
 17 22  1  0
 21 22  1  0
 12 23  1  0
 23 24  2  0
 24 25  1  0
 25 26  2  0
 26 27  1  0
 23 28  1  0
 27 28  2  0
 27 29  1  0
 30 29  1  1
 30 31  1  0
 31 32  1  0
 32 33  1  0
 33 34  1  0
 30 35  1  0
 34 35  1  0
M  END
$$$$
