3oy1
     RDKit          3D

 35 40  0  0  0  0  0  0  0  0999 V2000
  -16.6237   12.1477  -35.4213 C   0  0  0  0  0  0  0  0  0  0  0  0
  -17.5760   11.4621  -34.7210 C   0  0  0  0  0  0  0  0  0  0  0  0
  -18.2180   10.3797  -35.2803 C   0  0  0  0  0  0  0  0  0  0  0  0
  -17.9272    9.9506  -36.5561 C   0  0  0  0  0  0  0  0  0  0  0  0
  -16.9647   10.6435  -37.2640 C   0  0  0  0  0  0  0  0  0  0  0  0
  -16.3173   11.7288  -36.7103 C   0  0  0  0  0  0  0  0  0  0  0  0
  -19.1803    9.6996  -34.5516 C   0  0  0  0  0  0  0  0  0  0  0  0
  -19.5191   10.0850  -33.2556 C   0  0  0  0  0  0  0  0  0  0  0  0
  -18.8826   11.1603  -32.6977 C   0  0  0  0  0  0  0  0  0  0  0  0
  -17.9232   11.8361  -33.4280 C   0  0  0  0  0  0  0  0  0  0  0  0
  -20.5207    9.3197  -32.5926 N   0  0  0  0  0  0  0  0  0  0  0  0
  -21.6461    9.7701  -32.0090 C   0  0  0  0  0  0  0  0  0  0  0  0
  -22.3054    8.7241  -31.5059 N   0  0  0  0  0  0  0  0  0  0  0  0
  -21.6288    7.5948  -31.7510 N   0  0  0  0  0  0  0  0  0  0  0  0
  -20.5331    7.9846  -32.4213 C   0  0  0  0  0  0  0  0  0  0  0  0
  -19.6433    7.2285  -32.8334 O   0  0  0  0  0  0  0  0  0  0  0  0
  -22.0706    6.2901  -31.3396 C   0  0  2  0  0  0  0  0  0  0  0  0
  -21.6899    5.1711  -32.2413 C   0  0  0  0  0  0  0  0  0  0  0  0
  -22.7355    5.0650  -33.3273 C   0  0  0  0  0  0  0  0  0  0  0  0
  -23.8441    4.4222  -32.7734 O   0  0  0  0  0  0  0  0  0  0  0  0
  -24.0807    4.8648  -31.4774 C   0  0  0  0  0  0  0  0  0  0  0  0
  -23.5927    6.2836  -31.2662 C   0  0  0  0  0  0  0  0  0  0  0  0
  -22.1029   11.1522  -31.9197 C   0  0  0  0  0  0  0  0  0  0  0  0
  -21.4685   12.1111  -32.7096 C   0  0  0  0  0  0  0  0  0  0  0  0
  -21.8480   13.4435  -32.6780 C   0  0  0  0  0  0  0  0  0  0  0  0
  -22.8638   13.8052  -31.8523 N   0  0  0  0  0  0  0  0  0  0  0  0
  -23.4775   12.8857  -31.0901 C   0  0  0  0  0  0  0  0  0  0  0  0
  -23.1324   11.5549  -31.0912 C   0  0  0  0  0  0  0  0  0  0  0  0
  -24.5337   13.3165  -30.2440 N   0  0  0  0  0  0  0  0  0  0  0  0
  -25.1818   12.3598  -29.3535 C   0  0  1  0  0  0  0  0  0  0  0  0
  -26.2513   13.0519  -28.5156 C   0  0  0  0  0  0  0  0  0  0  0  0
  -26.6383   12.0663  -27.4204 C   0  0  0  0  0  0  0  0  0  0  0  0
  -27.3064   10.8817  -28.0794 C   0  0  0  0  0  0  0  0  0  0  0  0
  -27.2282   10.9436  -29.5812 C   0  0  0  0  0  0  0  0  0  0  0  0
  -25.8698   11.2513  -30.1192 C   0  0  0  0  0  0  0  0  0  0  0  0
  1  2  2  0
  2  3  1  0
  3  4  2  0
  4  5  1  0
  1  6  1  0
  5  6  2  0
  3  7  1  0
  7  8  2  0
  8  9  1  0
  2 10  1  0
  9 10  2  0
  8 11  1  0
 11 12  1  0
 12 13  2  0
 13 14  1  0
 11 15  1  0
 14 15  1  0
 15 16  2  0
 17 14  1  6
 17 18  1  0
 18 19  1  0
 19 20  1  0
 20 21  1  0
 17 22  1  0
 21 22  1  0
 12 23  1  0
 23 24  2  0
 24 25  1  0
 25 26  2  0
 26 27  1  0
 23 28  1  0
 27 28  2  0
 27 29  1  0
 30 29  1  6
 30 31  1  0
 31 32  1  0
 32 33  1  0
 33 34  1  0
 30 35  1  0
 34 35  1  0
M  END
$$$$
