3oy1
     RDKit          3D

 35 40  0  0  0  0  0  0  0  0999 V2000
  -17.0038   12.2213  -36.1852 C   0  0  0  0  0  0  0  0  0  0  0  0
  -18.0827   11.9870  -35.3800 C   0  0  0  0  0  0  0  0  0  0  0  0
  -18.2261   12.6542  -34.1837 C   0  0  0  0  0  0  0  0  0  0  0  0
  -17.2955   13.5752  -33.7571 C   0  0  0  0  0  0  0  0  0  0  0  0
  -16.2049   13.8120  -34.5710 C   0  0  0  0  0  0  0  0  0  0  0  0
  -16.0545   13.1475  -35.7707 C   0  0  0  0  0  0  0  0  0  0  0  0
  -19.3282   12.4006  -33.3833 C   0  0  0  0  0  0  0  0  0  0  0  0
  -20.3047   11.4799  -33.7597 C   0  0  0  0  0  0  0  0  0  0  0  0
  -20.1643   10.8157  -34.9479 C   0  0  0  0  0  0  0  0  0  0  0  0
  -19.0635   11.0715  -35.7435 C   0  0  0  0  0  0  0  0  0  0  0  0
  -21.3977   11.2924  -32.8661 N   0  0  0  0  0  0  0  0  0  0  0  0
  -21.8221   10.1392  -32.3186 C   0  0  0  0  0  0  0  0  0  0  0  0
  -22.8742   10.4058  -31.5414 N   0  0  0  0  0  0  0  0  0  0  0  0
  -23.1457   11.7167  -31.5715 N   0  0  0  0  0  0  0  0  0  0  0  0
  -22.2244   12.2437  -32.3933 C   0  0  0  0  0  0  0  0  0  0  0  0
  -22.1342   13.4434  -32.6868 O   0  0  0  0  0  0  0  0  0  0  0  0
  -24.2210   12.3297  -30.8405 C   0  0  2  0  0  0  0  0  0  0  0  0
  -24.1077   12.2644  -29.3595 C   0  0  0  0  0  0  0  0  0  0  0  0
  -24.6893   10.9472  -28.9005 C   0  0  0  0  0  0  0  0  0  0  0  0
  -26.0791   11.0771  -28.9249 O   0  0  0  0  0  0  0  0  0  0  0  0
  -26.4936   11.7857  -30.0464 C   0  0  0  0  0  0  0  0  0  0  0  0
  -25.5264   11.6316  -31.2024 C   0  0  0  0  0  0  0  0  0  0  0  0
  -21.2587    8.8083  -32.5141 C   0  0  0  0  0  0  0  0  0  0  0  0
  -19.8891    8.6984  -32.7551 C   0  0  0  0  0  0  0  0  0  0  0  0
  -19.2834    7.4675  -32.9504 C   0  0  0  0  0  0  0  0  0  0  0  0
  -20.0578    6.3529  -32.9023 N   0  0  0  0  0  0  0  0  0  0  0  0
  -21.3766    6.4537  -32.6706 C   0  0  0  0  0  0  0  0  0  0  0  0
  -22.0166    7.6541  -32.4718 C   0  0  0  0  0  0  0  0  0  0  0  0
  -22.1411    5.2574  -32.6304 N   0  0  0  0  0  0  0  0  0  0  0  0
  -23.4777    5.2738  -32.0461 C   0  0  1  0  0  0  0  0  0  0  0  0
  -24.1205    3.8948  -32.1478 C   0  0  0  0  0  0  0  0  0  0  0  0
  -25.5940    4.0860  -31.8118 C   0  0  0  0  0  0  0  0  0  0  0  0
  -25.6876    4.4993  -30.3612 C   0  0  0  0  0  0  0  0  0  0  0  0
  -24.3364    4.7670  -29.7546 C   0  0  0  0  0  0  0  0  0  0  0  0
  -23.4487    5.6400  -30.5787 C   0  0  0  0  0  0  0  0  0  0  0  0
  1  2  2  0
  2  3  1  0
  3  4  2  0
  4  5  1  0
  1  6  1  0
  5  6  2  0
  3  7  1  0
  7  8  2  0
  8  9  1  0
  2 10  1  0
  9 10  2  0
  8 11  1  0
 11 12  1  0
 12 13  2  0
 13 14  1  0
 11 15  1  0
 14 15  1  0
 15 16  2  0
 17 14  1  6
 17 18  1  0
 18 19  1  0
 19 20  1  0
 20 21  1  0
 17 22  1  0
 21 22  1  0
 12 23  1  0
 23 24  2  0
 24 25  1  0
 25 26  2  0
 26 27  1  0
 23 28  1  0
 27 28  2  0
 27 29  1  0
 30 29  1  1
 30 31  1  0
 31 32  1  0
 32 33  1  0
 33 34  1  0
 30 35  1  0
 34 35  1  0
M  END
$$$$
