1a0q_ligand
     RDKit          3D

 23 23  0  0  0  0  0  0  0  0999 V2000
   13.2288   20.2853   59.3508 C   0  0  2  0  0  0  0  0  0  0  0  0
   12.2494   19.6226   58.3911 C   0  0  0  0  0  0  0  0  0  0  0  0
   11.7445   18.3045   58.9262 C   0  0  0  0  0  0  0  0  0  0  0  0
   12.4439   17.1881   58.1726 C   0  0  0  0  0  0  0  0  0  0  0  0
   11.5283   16.5198   57.1671 C   0  0  0  0  0  0  0  0  0  0  0  0
   16.8152   22.2899   56.3138 C   0  0  0  0  0  0  0  0  0  0  0  0
   17.2394   23.0010   55.2047 C   0  0  0  0  0  0  0  0  0  0  0  0
   16.5941   22.8072   53.9993 C   0  0  0  0  0  0  0  0  0  0  0  0
   15.5423   21.9048   53.9454 C   0  0  0  0  0  0  0  0  0  0  0  0
   15.1273   21.1998   55.0611 C   0  0  0  0  0  0  0  0  0  0  0  0
   15.7784   21.3945   56.2799 C   0  0  0  0  0  0  0  0  0  0  0  0
   12.9477   20.2677   61.7827 C   0  0  0  0  0  0  0  0  0  0  0  0
   11.8102   19.3689   63.7984 C   0  0  0  0  0  0  0  0  0  0  0  0
   12.1120   20.5728   62.9699 C   0  0  0  0  0  0  0  0  0  0  0  0
   10.9351   19.7853   64.9265 C   0  0  0  0  0  0  0  0  0  0  0  0
   13.3929   22.4555   57.8002 O   0  0  0  0  0  0  0  0  0  0  0  0
   15.1852   22.2738   59.6078 O   0  0  0  0  0  0  0  0  0  0  0  0
   15.3655   20.6902   57.3991 O   0  0  0  0  0  0  0  0  0  0  0  0
   13.9656   19.5316   61.9931 O   0  0  0  0  0  0  0  0  0  0  0  0
   11.1982   19.2902   66.0639 O   0  0  0  0  0  0  0  0  0  0  0  0
    9.8808   20.6651   64.7750 O   0  0  0  0  0  0  0  0  0  0  0  0
   12.5979   20.7811   60.5270 N   0  0  0  0  0  0  0  0  0  0  0  0
   14.2732   21.4206   58.4604 P   0  0  1  0  0  0  0  0  0  0  0  0
  1 23  1  0
  1 22  1  1
  1  2  1  0
  2  3  1  6
  3  4  1  6
  4  5  1  6
 22 12  1  0
 12 19  2  0
 14 12  1  1
 14 13  1  0
 13 15  1  6
 15 20  2  0
 15 21  1  0
 23 16  2  0
 23 17  1  1
 23 18  1  0
 18 11  1  0
 11 10  1  0
 11  6  2  0
  6  7  1  0
  7  8  2  0
  8  9  1  0
  9 10  2  0
M  END
$$$$
