1a0q_ligand
     RDKit          3D

 23 23  0  0  0  0  0  0  0  0999 V2000
   13.0306   20.4554   59.2646 C   0  0  2  0  0  0  0  0  0  0  0  0
   12.3102   19.6904   58.1623 C   0  0  0  0  0  0  0  0  0  0  0  0
   11.3430   18.6761   58.7231 C   0  0  0  0  0  0  0  0  0  0  0  0
   11.1333   17.5942   57.6798 C   0  0  0  0  0  0  0  0  0  0  0  0
   12.3440   17.4246   56.7845 C   0  0  0  0  0  0  0  0  0  0  0  0
   16.9712   22.3282   56.3489 C   0  0  0  0  0  0  0  0  0  0  0  0
   17.3330   22.7957   55.0974 C   0  0  0  0  0  0  0  0  0  0  0  0
   16.5182   22.5161   54.0181 C   0  0  0  0  0  0  0  0  0  0  0  0
   15.3649   21.7752   54.2295 C   0  0  0  0  0  0  0  0  0  0  0  0
   15.0139   21.3133   55.4855 C   0  0  0  0  0  0  0  0  0  0  0  0
   15.8362   21.5951   56.5772 C   0  0  0  0  0  0  0  0  0  0  0  0
   12.5419   20.7050   61.6505 C   0  0  0  0  0  0  0  0  0  0  0  0
   11.8459   20.3575   64.0084 C   0  0  0  0  0  0  0  0  0  0  0  0
   11.6239   21.1144   62.7416 C   0  0  0  0  0  0  0  0  0  0  0  0
   11.3530   18.9678   63.8150 C   0  0  0  0  0  0  0  0  0  0  0  0
   13.2258   22.5497   57.6163 O   0  0  0  0  0  0  0  0  0  0  0  0
   14.5298   22.7606   59.7999 O   0  0  0  0  0  0  0  0  0  0  0  0
   15.4877   21.1342   57.8362 O   0  0  0  0  0  0  0  0  0  0  0  0
   13.6601   20.2178   62.0176 O   0  0  0  0  0  0  0  0  0  0  0  0
   10.2414   18.8359   63.2192 O   0  0  0  0  0  0  0  0  0  0  0  0
   12.0477   17.8562   64.2510 O   0  0  0  0  0  0  0  0  0  0  0  0
   12.1579   20.8643   60.3127 N   0  0  0  0  0  0  0  0  0  0  0  0
   14.0696   21.7125   58.5485 P   0  0  1  0  0  0  0  0  0  0  0  0
  1 23  1  0
  1 22  1  1
  1  2  1  0
  2  3  1  6
  3  4  1  6
  4  5  1  6
 22 12  1  0
 12 19  2  0
 14 12  1  1
 14 13  1  0
 13 15  1  6
 15 20  2  0
 15 21  1  0
 23 16  2  0
 23 17  1  1
 23 18  1  0
 18 11  1  0
 11 10  1  0
 11  6  2  0
  6  7  1  0
  7  8  2  0
  8  9  1  0
  9 10  2  0
M  END
$$$$
