1a0q_ligand
     RDKit          3D

 23 23  0  0  0  0  0  0  0  0999 V2000
   12.7590   20.3219   59.0788 C   0  0  2  0  0  0  0  0  0  0  0  0
   11.7402   19.5907   58.2147 C   0  0  0  0  0  0  0  0  0  0  0  0
   11.3608   18.2539   58.8042 C   0  0  0  0  0  0  0  0  0  0  0  0
   10.4128   17.5632   57.8411 C   0  0  0  0  0  0  0  0  0  0  0  0
   11.1174   17.1032   56.5809 C   0  0  0  0  0  0  0  0  0  0  0  0
   14.9241   21.0068   54.3162 C   0  0  0  0  0  0  0  0  0  0  0  0
   16.0561   21.2285   53.5514 C   0  0  0  0  0  0  0  0  0  0  0  0
   17.1890   21.7280   54.1631 C   0  0  0  0  0  0  0  0  0  0  0  0
   17.1494   21.9894   55.5246 C   0  0  0  0  0  0  0  0  0  0  0  0
   16.0117   21.7636   56.2787 C   0  0  0  0  0  0  0  0  0  0  0  0
   14.8661   21.2588   55.6619 C   0  0  0  0  0  0  0  0  0  0  0  0
   12.3658   20.2918   61.4950 C   0  0  0  0  0  0  0  0  0  0  0  0
   12.1136   20.1566   63.9614 C   0  0  0  0  0  0  0  0  0  0  0  0
   11.8407   20.9407   62.7214 C   0  0  0  0  0  0  0  0  0  0  0  0
   11.8408   21.0283   65.1350 C   0  0  0  0  0  0  0  0  0  0  0  0
   13.3760   22.8239   58.3719 O   0  0  0  0  0  0  0  0  0  0  0  0
   15.3609   21.2338   58.5824 O   0  0  0  0  0  0  0  0  0  0  0  0
   13.7251   21.0315   56.4139 O   0  0  0  0  0  0  0  0  0  0  0  0
   12.9731   19.1854   61.6674 O   0  0  0  0  0  0  0  0  0  0  0  0
   11.6722   20.4466   66.2492 O   0  0  0  0  0  0  0  0  0  0  0  0
   11.7685   22.4052   65.0483 O   0  0  0  0  0  0  0  0  0  0  0  0
   12.1804   20.8975   60.2455 N   0  0  0  0  0  0  0  0  0  0  0  0
   13.7544   21.3944   58.0633 P   0  0  1  0  0  0  0  0  0  0  0  0
  1 23  1  0
  1 22  1  1
  1  2  1  0
  2  3  1  6
  3  4  1  6
  4  5  1  6
 22 12  1  0
 12 19  2  0
 14 12  1  1
 14 13  1  0
 13 15  1  6
 15 20  2  0
 15 21  1  0
 23 16  2  0
 23 17  1  1
 23 18  1  0
 18 11  1  0
 11 10  1  0
 11  6  2  0
  6  7  1  0
  7  8  2  0
  8  9  1  0
  9 10  2  0
M  END
$$$$
