1a0q_ligand
     RDKit          3D

 23 23  0  0  0  0  0  0  0  0999 V2000
   12.8617   20.4580   59.3778 C   0  0  2  0  0  0  0  0  0  0  0  0
   11.9051   19.6378   58.5226 C   0  0  0  0  0  0  0  0  0  0  0  0
   11.7160   18.2443   59.0713 C   0  0  0  0  0  0  0  0  0  0  0  0
   10.9522   17.4300   58.0434 C   0  0  0  0  0  0  0  0  0  0  0  0
   11.8615   16.8806   56.9629 C   0  0  0  0  0  0  0  0  0  0  0  0
   16.5633   22.0721   56.5384 C   0  0  0  0  0  0  0  0  0  0  0  0
   17.2982   22.7801   55.6034 C   0  0  0  0  0  0  0  0  0  0  0  0
   16.9365   22.7051   54.2728 C   0  0  0  0  0  0  0  0  0  0  0  0
   15.8474   21.9210   53.9226 C   0  0  0  0  0  0  0  0  0  0  0  0
   15.1205   21.2178   54.8666 C   0  0  0  0  0  0  0  0  0  0  0  0
   15.4848   21.2925   56.2116 C   0  0  0  0  0  0  0  0  0  0  0  0
   12.4771   20.7552   61.7773 C   0  0  0  0  0  0  0  0  0  0  0  0
   11.8060   20.4587   64.1494 C   0  0  0  0  0  0  0  0  0  0  0  0
   11.5715   21.1891   62.8693 C   0  0  0  0  0  0  0  0  0  0  0  0
   11.1429   19.1307   64.0579 C   0  0  0  0  0  0  0  0  0  0  0  0
   13.0707   22.5776   57.7641 O   0  0  0  0  0  0  0  0  0  0  0  0
   15.0498   22.2067   59.3320 O   0  0  0  0  0  0  0  0  0  0  0  0
   14.7591   20.5896   57.1595 O   0  0  0  0  0  0  0  0  0  0  0  0
   13.4771   20.0499   62.1310 O   0  0  0  0  0  0  0  0  0  0  0  0
    9.9472   19.1193   63.6356 O   0  0  0  0  0  0  0  0  0  0  0  0
   11.7710   17.9511   64.4078 O   0  0  0  0  0  0  0  0  0  0  0  0
   12.2073   21.1237   60.4529 N   0  0  0  0  0  0  0  0  0  0  0  0
   13.9049   21.4539   58.3326 P   0  0  1  0  0  0  0  0  0  0  0  0
  1 23  1  0
  1 22  1  1
  1  2  1  0
  2  3  1  6
  3  4  1  6
  4  5  1  6
 22 12  1  0
 12 19  2  0
 14 12  1  1
 14 13  1  0
 13 15  1  6
 15 20  2  0
 15 21  1  0
 23 16  2  0
 23 17  1  1
 23 18  1  0
 18 11  1  0
 11 10  1  0
 11  6  2  0
  6  7  1  0
  7  8  2  0
  8  9  1  0
  9 10  2  0
M  END
$$$$
