1a0q_ligand
     RDKit          3D

 23 23  0  0  0  0  0  0  0  0999 V2000
   13.0406   20.6678   59.4192 C   0  0  2  0  0  0  0  0  0  0  0  0
   12.3319   19.7935   58.3932 C   0  0  0  0  0  0  0  0  0  0  0  0
   11.8594   18.4925   58.9953 C   0  0  0  0  0  0  0  0  0  0  0  0
   11.2540   17.6500   57.8877 C   0  0  0  0  0  0  0  0  0  0  0  0
   12.2414   17.3868   56.7687 C   0  0  0  0  0  0  0  0  0  0  0  0
   14.9515   21.7588   55.7335 C   0  0  0  0  0  0  0  0  0  0  0  0
   15.2868   21.9846   54.4098 C   0  0  0  0  0  0  0  0  0  0  0  0
   16.6205   22.0089   54.0527 C   0  0  0  0  0  0  0  0  0  0  0  0
   17.5765   21.8058   55.0368 C   0  0  0  0  0  0  0  0  0  0  0  0
   17.2289   21.5810   56.3570 C   0  0  0  0  0  0  0  0  0  0  0  0
   15.8815   21.5561   56.7193 C   0  0  0  0  0  0  0  0  0  0  0  0
   12.2413   20.5968   61.7321 C   0  0  0  0  0  0  0  0  0  0  0  0
   11.3234   20.0802   63.9806 C   0  0  0  0  0  0  0  0  0  0  0  0
   11.1251   20.7995   62.6882 C   0  0  0  0  0  0  0  0  0  0  0  0
   10.9957   18.6447   63.7715 C   0  0  0  0  0  0  0  0  0  0  0  0
   13.1943   22.5255   57.5044 O   0  0  0  0  0  0  0  0  0  0  0  0
   14.3412   23.1328   59.7018 O   0  0  0  0  0  0  0  0  0  0  0  0
   15.5299   21.3314   58.0403 O   0  0  0  0  0  0  0  0  0  0  0  0
   13.2294   19.9200   62.1658 O   0  0  0  0  0  0  0  0  0  0  0  0
   11.6264   17.8071   64.4848 O   0  0  0  0  0  0  0  0  0  0  0  0
   10.0567   18.2137   62.8544 O   0  0  0  0  0  0  0  0  0  0  0  0
   12.1671   21.1363   60.4414 N   0  0  0  0  0  0  0  0  0  0  0  0
   14.0336   21.8910   58.5884 P   0  0  1  0  0  0  0  0  0  0  0  0
  1 23  1  0
  1 22  1  6
  1  2  1  0
  2  3  1  6
  3  4  1  6
  4  5  1  6
 22 12  1  0
 12 19  2  0
 14 12  1  1
 14 13  1  0
 13 15  1  6
 15 20  2  0
 15 21  1  0
 23 16  2  0
 23 17  1  1
 23 18  1  0
 18 11  1  0
 11 10  1  0
 11  6  2  0
  6  7  1  0
  7  8  2  0
  8  9  1  0
  9 10  2  0
M  END
$$$$
