1a0q_ligand
     RDKit          3D

 23 23  0  0  0  0  0  0  0  0999 V2000
   13.1504   20.4540   59.2446 C   0  0  2  0  0  0  0  0  0  0  0  0
   12.4171   19.5598   58.2538 C   0  0  0  0  0  0  0  0  0  0  0  0
   11.7379   18.3999   58.9408 C   0  0  0  0  0  0  0  0  0  0  0  0
   11.0750   17.5423   57.8786 C   0  0  0  0  0  0  0  0  0  0  0  0
   12.0894   16.8641   56.9801 C   0  0  0  0  0  0  0  0  0  0  0  0
   14.9454   21.5575   55.1095 C   0  0  0  0  0  0  0  0  0  0  0  0
   15.2694   22.1870   53.9202 C   0  0  0  0  0  0  0  0  0  0  0  0
   16.4115   22.9611   53.8631 C   0  0  0  0  0  0  0  0  0  0  0  0
   17.1930   23.0789   55.0028 C   0  0  0  0  0  0  0  0  0  0  0  0
   16.8586   22.4447   56.1861 C   0  0  0  0  0  0  0  0  0  0  0  0
   15.7048   21.6621   56.2454 C   0  0  0  0  0  0  0  0  0  0  0  0
   12.2142   20.2465   61.4972 C   0  0  0  0  0  0  0  0  0  0  0  0
   11.1549   19.7323   63.6832 C   0  0  0  0  0  0  0  0  0  0  0  0
   11.2223   20.6632   62.5187 C   0  0  0  0  0  0  0  0  0  0  0  0
   12.1852   20.1461   64.6725 C   0  0  0  0  0  0  0  0  0  0  0  0
   13.1711   22.5493   57.5862 O   0  0  0  0  0  0  0  0  0  0  0  0
   14.8273   22.6807   59.5234 O   0  0  0  0  0  0  0  0  0  0  0  0
   15.3670   21.0257   57.4285 O   0  0  0  0  0  0  0  0  0  0  0  0
   12.9457   19.2505   61.8058 O   0  0  0  0  0  0  0  0  0  0  0  0
   13.2441   20.6665   64.2078 O   0  0  0  0  0  0  0  0  0  0  0  0
   12.0264   19.9850   66.0353 O   0  0  0  0  0  0  0  0  0  0  0  0
   12.3035   20.9378   60.2820 N   0  0  0  0  0  0  0  0  0  0  0  0
   14.1161   21.6655   58.3659 P   0  0  1  0  0  0  0  0  0  0  0  0
  1 23  1  0
  1 22  1  1
  1  2  1  0
  2  3  1  6
  3  4  1  6
  4  5  1  6
 22 12  1  0
 12 19  2  0
 14 12  1  1
 14 13  1  0
 13 15  1  6
 15 20  2  0
 15 21  1  0
 23 16  2  0
 23 17  1  1
 23 18  1  0
 18 11  1  0
 11 10  1  0
 11  6  2  0
  6  7  1  0
  7  8  2  0
  8  9  1  0
  9 10  2  0
M  END
$$$$
