1a0q_ligand
     RDKit          3D

 23 23  0  0  0  0  0  0  0  0999 V2000
   13.0298   20.0885   59.0784 C   0  0  2  0  0  0  0  0  0  0  0  0
   12.1880   19.3416   58.0523 C   0  0  0  0  0  0  0  0  0  0  0  0
   11.3034   18.3041   58.7003 C   0  0  0  0  0  0  0  0  0  0  0  0
   11.4569   17.0042   57.9323 C   0  0  0  0  0  0  0  0  0  0  0  0
   10.6738   15.8727   58.5667 C   0  0  0  0  0  0  0  0  0  0  0  0
   15.4137   21.5472   54.8622 C   0  0  0  0  0  0  0  0  0  0  0  0
   16.1291   22.3674   54.0070 C   0  0  0  0  0  0  0  0  0  0  0  0
   17.2667   22.9934   54.4770 C   0  0  0  0  0  0  0  0  0  0  0  0
   17.6507   22.7760   55.7919 C   0  0  0  0  0  0  0  0  0  0  0  0
   16.9272   21.9538   56.6373 C   0  0  0  0  0  0  0  0  0  0  0  0
   15.7774   21.3205   56.1638 C   0  0  0  0  0  0  0  0  0  0  0  0
   12.6398   20.4369   61.4700 C   0  0  0  0  0  0  0  0  0  0  0  0
   11.9790   20.7179   63.8469 C   0  0  0  0  0  0  0  0  0  0  0  0
   12.1854   21.3770   62.5240 C   0  0  0  0  0  0  0  0  0  0  0  0
   11.2514   21.6655   64.7326 C   0  0  0  0  0  0  0  0  0  0  0  0
   13.3670   22.4169   57.8113 O   0  0  0  0  0  0  0  0  0  0  0  0
   15.2481   21.7670   59.4088 O   0  0  0  0  0  0  0  0  0  0  0  0
   15.0506   20.4965   57.0076 O   0  0  0  0  0  0  0  0  0  0  0  0
   13.3809   19.4779   61.8618 O   0  0  0  0  0  0  0  0  0  0  0  0
   11.0086   22.8161   64.2580 O   0  0  0  0  0  0  0  0  0  0  0  0
   10.8470   21.3386   66.0125 O   0  0  0  0  0  0  0  0  0  0  0  0
   12.2511   20.6335   60.1386 N   0  0  0  0  0  0  0  0  0  0  0  0
   14.1476   21.2002   58.2495 P   0  0  1  0  0  0  0  0  0  0  0  0
  1 23  1  0
  1 22  1  1
  1  2  1  0
  2  3  1  6
  3  4  1  6
  4  5  1  6
 22 12  1  0
 12 19  2  0
 14 12  1  1
 14 13  1  0
 13 15  1  6
 15 20  2  0
 15 21  1  0
 23 16  2  0
 23 17  1  1
 23 18  1  0
 18 11  1  0
 11 10  1  0
 11  6  2  0
  6  7  1  0
  7  8  2  0
  8  9  1  0
  9 10  2  0
M  END
$$$$
