1a0q_ligand
     RDKit          3D

 23 23  0  0  0  0  0  0  0  0999 V2000
   12.7663   20.4818   58.6491 C   0  0  2  0  0  0  0  0  0  0  0  0
   11.5758   19.9319   57.8747 C   0  0  0  0  0  0  0  0  0  0  0  0
   11.2740   18.5016   58.2507 C   0  0  0  0  0  0  0  0  0  0  0  0
   10.1058   18.0262   57.4066 C   0  0  0  0  0  0  0  0  0  0  0  0
    9.6827   16.6156   57.7635 C   0  0  0  0  0  0  0  0  0  0  0  0
   16.3888   22.4821   55.8102 C   0  0  0  0  0  0  0  0  0  0  0  0
   17.1425   22.2399   54.6749 C   0  0  0  0  0  0  0  0  0  0  0  0
   17.5451   20.9473   54.4029 C   0  0  0  0  0  0  0  0  0  0  0  0
   17.1780   19.9377   55.2801 C   0  0  0  0  0  0  0  0  0  0  0  0
   16.4242   20.1923   56.4120 C   0  0  0  0  0  0  0  0  0  0  0  0
   16.0166   21.4980   56.6882 C   0  0  0  0  0  0  0  0  0  0  0  0
   13.1377   20.1928   61.0516 C   0  0  0  0  0  0  0  0  0  0  0  0
   13.0210   19.3795   63.3947 C   0  0  0  0  0  0  0  0  0  0  0  0
   12.4082   19.3542   62.0343 C   0  0  0  0  0  0  0  0  0  0  0  0
   11.9465   19.6507   64.3864 C   0  0  0  0  0  0  0  0  0  0  0  0
   13.0822   21.6547   56.2690 O   0  0  0  0  0  0  0  0  0  0  0  0
   13.0240   23.2446   58.2644 O   0  0  0  0  0  0  0  0  0  0  0  0
   15.2617   21.7565   57.8206 O   0  0  0  0  0  0  0  0  0  0  0  0
   14.3926   20.3049   61.2390 O   0  0  0  0  0  0  0  0  0  0  0  0
   11.6964   18.7295   65.2211 O   0  0  0  0  0  0  0  0  0  0  0  0
   11.2383   20.8364   64.4221 O   0  0  0  0  0  0  0  0  0  0  0  0
   12.4449   20.8037   59.9984 N   0  0  0  0  0  0  0  0  0  0  0  0
   13.5775   21.7468   57.6931 P   0  0  1  0  0  0  0  0  0  0  0  0
  1 23  1  0
  1 22  1  1
  1  2  1  0
  2  3  1  6
  3  4  1  6
  4  5  1  6
 22 12  1  0
 12 19  2  0
 14 12  1  1
 14 13  1  0
 13 15  1  6
 15 20  2  0
 15 21  1  0
 23 16  2  0
 23 17  1  1
 23 18  1  0
 18 11  1  0
 11 10  1  0
 11  6  2  0
  6  7  1  0
  7  8  2  0
  8  9  1  0
  9 10  2  0
M  END
$$$$
