1a0q_ligand
     RDKit          3D

 23 23  0  0  0  0  0  0  0  0999 V2000
   13.0184   20.6692   59.3292 C   0  0  2  0  0  0  0  0  0  0  0  0
   12.3081   19.6488   58.4497 C   0  0  0  0  0  0  0  0  0  0  0  0
   12.4029   18.2542   59.0194 C   0  0  0  0  0  0  0  0  0  0  0  0
   11.0545   17.5793   58.8471 C   0  0  0  0  0  0  0  0  0  0  0  0
   11.1840   16.1946   58.2454 C   0  0  0  0  0  0  0  0  0  0  0  0
   14.8076   20.6439   55.3032 C   0  0  0  0  0  0  0  0  0  0  0  0
   14.9958   20.8069   53.9417 C   0  0  0  0  0  0  0  0  0  0  0  0
   15.9554   21.6969   53.5013 C   0  0  0  0  0  0  0  0  0  0  0  0
   16.6964   22.3958   54.4425 C   0  0  0  0  0  0  0  0  0  0  0  0
   16.4991   22.2243   55.8010 C   0  0  0  0  0  0  0  0  0  0  0  0
   15.5298   21.3253   56.2477 C   0  0  0  0  0  0  0  0  0  0  0  0
   12.5603   21.2749   61.6566 C   0  0  0  0  0  0  0  0  0  0  0  0
   12.1221   21.4823   64.0918 C   0  0  0  0  0  0  0  0  0  0  0  0
   11.5915   21.6677   62.7093 C   0  0  0  0  0  0  0  0  0  0  0  0
   11.3671   20.3756   64.7375 C   0  0  0  0  0  0  0  0  0  0  0  0
   12.9929   22.4250   57.3150 O   0  0  0  0  0  0  0  0  0  0  0  0
   14.4415   23.0821   59.3107 O   0  0  0  0  0  0  0  0  0  0  0  0
   15.3295   21.1511   57.6073 O   0  0  0  0  0  0  0  0  0  0  0  0
   13.7335   20.9860   62.0599 O   0  0  0  0  0  0  0  0  0  0  0  0
   11.1364   20.4924   65.9790 O   0  0  0  0  0  0  0  0  0  0  0  0
   10.9259   19.2634   64.0470 O   0  0  0  0  0  0  0  0  0  0  0  0
   12.1622   21.2390   60.3139 N   0  0  0  0  0  0  0  0  0  0  0  0
   13.9414   21.8046   58.3136 P   0  0  1  0  0  0  0  0  0  0  0  0
  1 23  1  0
  1 22  1  6
  1  2  1  0
  2  3  1  6
  3  4  1  6
  4  5  1  6
 22 12  1  0
 12 19  2  0
 14 12  1  1
 14 13  1  0
 13 15  1  6
 15 20  2  0
 15 21  1  0
 23 16  2  0
 23 17  1  1
 23 18  1  0
 18 11  1  0
 11 10  1  0
 11  6  2  0
  6  7  1  0
  7  8  2  0
  8  9  1  0
  9 10  2  0
M  END
$$$$
