1a0q_ligand
     RDKit          3D

 23 23  0  0  0  0  0  0  0  0999 V2000
   12.9472   20.7422   59.3098 C   0  0  2  0  0  0  0  0  0  0  0  0
   11.7979   20.2376   58.4476 C   0  0  0  0  0  0  0  0  0  0  0  0
   11.3905   18.8330   58.8215 C   0  0  0  0  0  0  0  0  0  0  0  0
   11.4449   17.9752   57.5707 C   0  0  0  0  0  0  0  0  0  0  0  0
   10.9902   16.5541   57.8353 C   0  0  0  0  0  0  0  0  0  0  0  0
   15.2765   21.2715   54.5368 C   0  0  0  0  0  0  0  0  0  0  0  0
   16.3179   21.6816   53.7227 C   0  0  0  0  0  0  0  0  0  0  0  0
   17.4356   22.2494   54.3018 C   0  0  0  0  0  0  0  0  0  0  0  0
   17.4724   22.3876   55.6814 C   0  0  0  0  0  0  0  0  0  0  0  0
   16.4249   21.9737   56.4848 C   0  0  0  0  0  0  0  0  0  0  0  0
   15.2948   21.3997   55.9010 C   0  0  0  0  0  0  0  0  0  0  0  0
   13.0035   21.1110   61.7294 C   0  0  0  0  0  0  0  0  0  0  0  0
   12.2723   20.5456   64.0339 C   0  0  0  0  0  0  0  0  0  0  0  0
   12.3044   21.5742   62.9532 C   0  0  0  0  0  0  0  0  0  0  0  0
   11.0073   19.7740   63.9071 C   0  0  0  0  0  0  0  0  0  0  0  0
   13.9214   23.0488   58.3762 O   0  0  0  0  0  0  0  0  0  0  0  0
   15.6745   21.3018   58.9986 O   0  0  0  0  0  0  0  0  0  0  0  0
   14.2441   20.9842   56.7025 O   0  0  0  0  0  0  0  0  0  0  0  0
   14.0524   20.4134   61.9181 O   0  0  0  0  0  0  0  0  0  0  0  0
   10.9772   18.6347   64.4632 O   0  0  0  0  0  0  0  0  0  0  0  0
    9.9033   20.2470   63.2245 O   0  0  0  0  0  0  0  0  0  0  0  0
   12.5021   21.4458   60.4649 N   0  0  0  0  0  0  0  0  0  0  0  0
   14.1561   21.5592   58.2882 P   0  0  1  0  0  0  0  0  0  0  0  0
  1 23  1  0
  1 22  1  1
  1  2  1  0
  2  3  1  6
  3  4  1  6
  4  5  1  6
 22 12  1  0
 12 19  2  0
 14 12  1  1
 14 13  1  0
 13 15  1  6
 15 20  2  0
 15 21  1  0
 23 16  2  0
 23 17  1  1
 23 18  1  0
 18 11  1  0
 11 10  1  0
 11  6  2  0
  6  7  1  0
  7  8  2  0
  8  9  1  0
  9 10  2  0
M  END
$$$$
