1a0q_ligand
     RDKit          3D

 23 23  0  0  0  0  0  0  0  0999 V2000
   12.8998   20.6220   59.1050 C   0  0  2  0  0  0  0  0  0  0  0  0
   12.0194   20.2025   57.9354 C   0  0  0  0  0  0  0  0  0  0  0  0
   11.2108   18.9687   58.2559 C   0  0  0  0  0  0  0  0  0  0  0  0
   12.1487   17.7757   58.2609 C   0  0  0  0  0  0  0  0  0  0  0  0
   11.6669   16.6693   57.3444 C   0  0  0  0  0  0  0  0  0  0  0  0
   16.1152   22.7165   56.2786 C   0  0  0  0  0  0  0  0  0  0  0  0
   17.1334   22.5724   55.3523 C   0  0  0  0  0  0  0  0  0  0  0  0
   16.8597   21.9531   54.1488 C   0  0  0  0  0  0  0  0  0  0  0  0
   15.5711   21.4977   53.9130 C   0  0  0  0  0  0  0  0  0  0  0  0
   14.5614   21.6475   54.8469 C   0  0  0  0  0  0  0  0  0  0  0  0
   14.8365   22.2731   56.0636 C   0  0  0  0  0  0  0  0  0  0  0  0
   12.6926   20.6737   61.5439 C   0  0  0  0  0  0  0  0  0  0  0  0
   12.5352   20.3974   64.0064 C   0  0  0  0  0  0  0  0  0  0  0  0
   11.8646   20.8687   62.7593 C   0  0  0  0  0  0  0  0  0  0  0  0
   12.0598   19.0193   64.3005 C   0  0  0  0  0  0  0  0  0  0  0  0
   14.1454   22.9315   59.6107 O   0  0  0  0  0  0  0  0  0  0  0  0
   15.6094   21.1092   58.5867 O   0  0  0  0  0  0  0  0  0  0  0  0
   13.8279   22.4248   57.0010 O   0  0  0  0  0  0  0  0  0  0  0  0
   13.8857   20.2739   61.7417 O   0  0  0  0  0  0  0  0  0  0  0  0
   12.9512   18.1315   64.4597 O   0  0  0  0  0  0  0  0  0  0  0  0
   10.7217   18.6912   64.4015 O   0  0  0  0  0  0  0  0  0  0  0  0
   12.1509   20.9270   60.2770 N   0  0  0  0  0  0  0  0  0  0  0  0
   14.0801   21.8422   58.5662 P   0  0  1  0  0  0  0  0  0  0  0  0
  1 23  1  0
  1 22  1  1
  1  2  1  0
  2  3  1  6
  3  4  1  6
  4  5  1  6
 22 12  1  0
 12 19  2  0
 14 12  1  1
 14 13  1  0
 13 15  1  6
 15 20  2  0
 15 21  1  0
 23 16  2  0
 23 17  1  6
 23 18  1  0
 18 11  1  0
 11 10  1  0
 11  6  2  0
  6  7  1  0
  7  8  2  0
  8  9  1  0
  9 10  2  0
M  END
$$$$
