1a0q_ligand
     RDKit          3D

 23 23  0  0  0  0  0  0  0  0999 V2000
   12.8561   20.4431   59.0422 C   0  0  2  0  0  0  0  0  0  0  0  0
   11.6256   20.1278   58.2021 C   0  0  0  0  0  0  0  0  0  0  0  0
   11.0801   18.7522   58.5000 C   0  0  0  0  0  0  0  0  0  0  0  0
   11.6855   17.7772   57.5070 C   0  0  0  0  0  0  0  0  0  0  0  0
   11.2605   16.3488   57.7808 C   0  0  0  0  0  0  0  0  0  0  0  0
   16.8248   22.0041   56.0082 C   0  0  0  0  0  0  0  0  0  0  0  0
   17.1271   22.2201   54.6750 C   0  0  0  0  0  0  0  0  0  0  0  0
   16.1135   22.1499   53.7397 C   0  0  0  0  0  0  0  0  0  0  0  0
   14.8272   21.8646   54.1730 C   0  0  0  0  0  0  0  0  0  0  0  0
   14.5374   21.6505   55.5088 C   0  0  0  0  0  0  0  0  0  0  0  0
   15.5606   21.7212   56.4550 C   0  0  0  0  0  0  0  0  0  0  0  0
   13.5624   20.1304   61.3653 C   0  0  0  0  0  0  0  0  0  0  0  0
   12.3566   19.0796   63.2645 C   0  0  0  0  0  0  0  0  0  0  0  0
   13.2676   20.1743   62.8186 C   0  0  0  0  0  0  0  0  0  0  0  0
   11.2135   19.6908   63.9935 C   0  0  0  0  0  0  0  0  0  0  0  0
   12.8262   22.4795   57.3122 O   0  0  0  0  0  0  0  0  0  0  0  0
   13.8653   22.9995   59.5844 O   0  0  0  0  0  0  0  0  0  0  0  0
   15.2740   21.5074   57.7933 O   0  0  0  0  0  0  0  0  0  0  0  0
   14.7384   19.7585   61.0471 O   0  0  0  0  0  0  0  0  0  0  0  0
   10.8912   19.1564   65.0974 O   0  0  0  0  0  0  0  0  0  0  0  0
   10.5176   20.7855   63.5182 O   0  0  0  0  0  0  0  0  0  0  0  0
   12.5748   20.4856   60.4373 N   0  0  0  0  0  0  0  0  0  0  0  0
   13.7161   21.8425   58.3534 P   0  0  1  0  0  0  0  0  0  0  0  0
  1 23  1  0
  1 22  1  1
  1  2  1  0
  2  3  1  6
  3  4  1  6
  4  5  1  6
 22 12  1  0
 12 19  2  0
 14 12  1  1
 14 13  1  0
 13 15  1  6
 15 20  2  0
 15 21  1  0
 23 16  2  0
 23 17  1  1
 23 18  1  0
 18 11  1  0
 11 10  1  0
 11  6  2  0
  6  7  1  0
  7  8  2  0
  8  9  1  0
  9 10  2  0
M  END
$$$$
