B9K
     RDKit          3D

 27 30  0  0  0  0  0  0  0  0999 V2000
    8.6920   32.4010   13.2140 C   0  0  0  0  0  0  0  0  0  0  0  0
    6.8620   33.3120   15.1120 C   0  0  0  0  0  0  0  0  0  0  0  0
    6.9540   33.9370   13.8800 C   0  0  0  0  0  0  0  0  0  0  0  0
    6.8290   31.5920   19.1870 C   0  0  0  0  0  0  0  0  0  0  0  0
    8.7720   30.4250   18.7280 C   0  0  0  0  0  0  0  0  0  0  0  0
   11.2230   35.3610    9.4460 C   0  0  0  0  0  0  0  0  0  0  0  0
    9.9350   35.4350    8.9940 C   0  0  0  0  0  0  0  0  0  0  0  0
    8.9330   35.0500    9.7610 N   0  0  0  0  0  0  0  0  0  0  0  0
    9.1080   34.5740   10.9720 C   0  0  0  0  0  0  0  0  0  0  0  0
   10.3920   34.4860   11.5070 C   0  0  0  0  0  0  0  0  0  0  0  0
   11.4790   34.9020   10.7260 C   0  0  0  0  0  0  0  0  0  0  0  0
   12.7730   34.7860   11.2390 C   0  0  0  0  0  0  0  0  0  0  0  0
   13.1200   33.9110   12.1790 N   0  0  0  0  0  0  0  0  0  0  0  0
   14.3980   34.0590   12.4230 C   0  0  0  0  0  0  0  0  0  0  0  0
   14.9120   34.9800   11.6520 N   0  0  0  0  0  0  0  0  0  0  0  0
   13.9500   35.4620   10.8900 C   0  0  0  0  0  0  0  0  0  0  0  0
   14.1770   36.5730    9.8730 C   0  0  0  0  0  0  0  0  0  0  0  0
   15.3090   33.1090   13.6310 S   0  0  0  0  0  0  0  0  0  0  0  0
   17.0600   33.1810   13.1680 C   0  0  0  0  0  0  0  0  0  0  0  0
    7.8950   34.1820   11.6730 N   0  0  0  0  0  0  0  0  0  0  0  0
    7.8700   33.4910   12.9360 C   0  0  0  0  0  0  0  0  0  0  0  0
    8.6240   31.7770   14.4530 C   0  0  0  0  0  0  0  0  0  0  0  0
    7.6980   32.2250   15.4220 C   0  0  0  0  0  0  0  0  0  0  0  0
    7.6160   31.5710   16.7340 N   0  0  0  0  0  0  0  0  0  0  0  0
    6.8050   32.2280   17.8060 C   0  0  0  0  0  0  0  0  0  0  0  0
    8.1360   31.3160   19.5730 O   0  0  0  0  0  0  0  0  0  0  0  0
    8.8450   30.9430   17.2850 C   0  0  0  0  0  0  0  0  0  0  0  0
  3  2  1  0
  7  6  1  0
  8  7  1  0
  9  8  1  0
 10  9  1  0
 11 10  1  0
 11  6  1  0
 12 11  1  0
 13 12  1  0
 14 13  1  0
 15 14  1  0
 16 15  1  0
 16 12  1  0
 17 16  1  0
 18 14  1  0
 19 18  1  0
 20  9  1  0
 21  1  1  0
 21 20  1  0
 21  3  1  0
 22  1  1  0
 23 22  1  0
 23  2  1  0
 24 23  1  0
 25 24  1  0
 25  4  1  0
 26  5  1  0
 26  4  1  0
 27 24  1  0
 27  5  1  0
M  END
$$$$
