1a0q_ligand
     RDKit          3D

 23 23  0  0  0  0  0  0  0  0999 V2000
   13.0475   20.7934   59.2090 C   0  0  2  0  0  0  0  0  0  0  0  0
   12.1096   19.8918   58.4174 C   0  0  0  0  0  0  0  0  0  0  0  0
   12.2793   18.4392   58.7912 C   0  0  0  0  0  0  0  0  0  0  0  0
   11.2887   17.6228   57.9816 C   0  0  0  0  0  0  0  0  0  0  0  0
   11.4361   16.1359   58.2341 C   0  0  0  0  0  0  0  0  0  0  0  0
   15.6173   21.4237   54.5758 C   0  0  0  0  0  0  0  0  0  0  0  0
   16.6863   21.9191   53.8496 C   0  0  0  0  0  0  0  0  0  0  0  0
   17.6952   22.5865   54.5158 C   0  0  0  0  0  0  0  0  0  0  0  0
   17.5988   22.7355   55.8914 C   0  0  0  0  0  0  0  0  0  0  0  0
   16.5250   22.2357   56.6064 C   0  0  0  0  0  0  0  0  0  0  0  0
   15.5048   21.5611   55.9346 C   0  0  0  0  0  0  0  0  0  0  0  0
   12.8782   21.3114   61.5957 C   0  0  0  0  0  0  0  0  0  0  0  0
   12.3864   21.1426   64.0237 C   0  0  0  0  0  0  0  0  0  0  0  0
   12.0980   21.8454   62.7392 C   0  0  0  0  0  0  0  0  0  0  0  0
   11.9911   19.7167   63.8752 C   0  0  0  0  0  0  0  0  0  0  0  0
   13.2432   23.1113   57.8938 O   0  0  0  0  0  0  0  0  0  0  0  0
   15.4251   22.2401   58.8903 O   0  0  0  0  0  0  0  0  0  0  0  0
   14.4281   21.0593   56.6474 O   0  0  0  0  0  0  0  0  0  0  0  0
   13.9759   20.7368   61.8911 O   0  0  0  0  0  0  0  0  0  0  0  0
   12.9144   18.8971   63.5858 O   0  0  0  0  0  0  0  0  0  0  0  0
   10.6920   19.2758   64.0381 O   0  0  0  0  0  0  0  0  0  0  0  0
   12.3956   21.4548   60.2884 N   0  0  0  0  0  0  0  0  0  0  0  0
   13.9899   21.8135   58.0938 P   0  0  1  0  0  0  0  0  0  0  0  0
  1 23  1  0
  1 22  1  1
  1  2  1  0
  2  3  1  6
  3  4  1  6
  4  5  1  6
 22 12  1  0
 12 19  2  0
 14 12  1  1
 14 13  1  0
 13 15  1  6
 15 20  2  0
 15 21  1  0
 23 16  2  0
 23 17  1  1
 23 18  1  0
 18 11  1  0
 11 10  1  0
 11  6  2  0
  6  7  1  0
  7  8  2  0
  8  9  1  0
  9 10  2  0
M  END
$$$$
