1a0q_ligand
     RDKit          3D

 23 23  0  0  0  0  0  0  0  0999 V2000
   12.7935   20.4718   59.1839 C   0  0  2  0  0  0  0  0  0  0  0  0
   11.6956   19.9952   58.2422 C   0  0  0  0  0  0  0  0  0  0  0  0
   10.9969   18.7662   58.7713 C   0  0  0  0  0  0  0  0  0  0  0  0
   11.7724   17.5455   58.3114 C   0  0  0  0  0  0  0  0  0  0  0  0
   10.8765   16.3366   58.1320 C   0  0  0  0  0  0  0  0  0  0  0  0
   16.0057   22.5847   56.3209 C   0  0  0  0  0  0  0  0  0  0  0  0
   16.6443   23.3191   55.3368 C   0  0  0  0  0  0  0  0  0  0  0  0
   16.7544   22.7838   54.0686 C   0  0  0  0  0  0  0  0  0  0  0  0
   16.2194   21.5270   53.8283 C   0  0  0  0  0  0  0  0  0  0  0  0
   15.5832   20.8024   54.8204 C   0  0  0  0  0  0  0  0  0  0  0  0
   15.4712   21.3420   56.1025 C   0  0  0  0  0  0  0  0  0  0  0  0
   12.9239   20.7702   61.6103 C   0  0  0  0  0  0  0  0  0  0  0  0
   11.0187   21.1381   63.1595 C   0  0  0  0  0  0  0  0  0  0  0  0
   12.4501   21.4280   62.8528 C   0  0  0  0  0  0  0  0  0  0  0  0
   10.9493   19.8410   63.8836 C   0  0  0  0  0  0  0  0  0  0  0  0
   13.2667   22.6850   57.7630 O   0  0  0  0  0  0  0  0  0  0  0  0
   15.1064   22.0364   59.4085 O   0  0  0  0  0  0  0  0  0  0  0  0
   14.8348   20.6192   57.0983 O   0  0  0  0  0  0  0  0  0  0  0  0
   13.9207   19.9879   61.7402 O   0  0  0  0  0  0  0  0  0  0  0  0
   10.2063   19.8012   64.9104 O   0  0  0  0  0  0  0  0  0  0  0  0
   11.6471   18.7180   63.4829 O   0  0  0  0  0  0  0  0  0  0  0  0
   12.2817   21.0255   60.3917 N   0  0  0  0  0  0  0  0  0  0  0  0
   13.9746   21.4573   58.2860 P   0  0  1  0  0  0  0  0  0  0  0  0
  1 23  1  0
  1 22  1  1
  1  2  1  0
  2  3  1  6
  3  4  1  6
  4  5  1  6
 22 12  1  0
 12 19  2  0
 14 12  1  1
 14 13  1  0
 13 15  1  6
 15 20  2  0
 15 21  1  0
 23 16  2  0
 23 17  1  1
 23 18  1  0
 18 11  1  0
 11 10  1  0
 11  6  2  0
  6  7  1  0
  7  8  2  0
  8  9  1  0
  9 10  2  0
M  END
$$$$
