1a0q_ligand
     RDKit          3D

 23 23  0  0  0  0  0  0  0  0999 V2000
   12.9815   20.7762   59.4768 C   0  0  2  0  0  0  0  0  0  0  0  0
   12.1360   19.8367   58.6273 C   0  0  0  0  0  0  0  0  0  0  0  0
   11.4355   18.7971   59.4682 C   0  0  0  0  0  0  0  0  0  0  0  0
   11.4446   17.4855   58.7048 C   0  0  0  0  0  0  0  0  0  0  0  0
   11.2663   17.6933   57.2145 C   0  0  0  0  0  0  0  0  0  0  0  0
   14.9749   21.0029   55.2548 C   0  0  0  0  0  0  0  0  0  0  0  0
   15.3782   21.4073   53.9941 C   0  0  0  0  0  0  0  0  0  0  0  0
   16.5441   22.1364   53.8669 C   0  0  0  0  0  0  0  0  0  0  0  0
   17.2690   22.4366   55.0106 C   0  0  0  0  0  0  0  0  0  0  0  0
   16.8555   22.0268   56.2657 C   0  0  0  0  0  0  0  0  0  0  0  0
   15.6775   21.2900   56.3958 C   0  0  0  0  0  0  0  0  0  0  0  0
   12.4246   21.2488   61.8134 C   0  0  0  0  0  0  0  0  0  0  0  0
   11.6709   21.2333   64.1792 C   0  0  0  0  0  0  0  0  0  0  0  0
   11.4874   21.8123   62.8161 C   0  0  0  0  0  0  0  0  0  0  0  0
   11.1051   19.8580   64.1828 C   0  0  0  0  0  0  0  0  0  0  0  0
   13.1711   22.5434   57.4813 O   0  0  0  0  0  0  0  0  0  0  0  0
   14.8012   22.9051   59.4112 O   0  0  0  0  0  0  0  0  0  0  0  0
   15.2606   20.8780   57.6509 O   0  0  0  0  0  0  0  0  0  0  0  0
   13.3934   20.5658   62.2796 O   0  0  0  0  0  0  0  0  0  0  0  0
   10.4246   19.5197   63.1676 O   0  0  0  0  0  0  0  0  0  0  0  0
   11.2935   18.9703   65.2245 O   0  0  0  0  0  0  0  0  0  0  0  0
   12.2151   21.4812   60.4479 N   0  0  0  0  0  0  0  0  0  0  0  0
   14.0412   21.7508   58.4282 P   0  0  1  0  0  0  0  0  0  0  0  0
  1 23  1  0
  1 22  1  6
  1  2  1  0
  2  3  1  6
  3  4  1  6
  4  5  1  6
 22 12  1  0
 12 19  2  0
 14 12  1  1
 14 13  1  0
 13 15  1  6
 15 20  2  0
 15 21  1  0
 23 16  2  0
 23 17  1  1
 23 18  1  0
 18 11  1  0
 11 10  1  0
 11  6  2  0
  6  7  1  0
  7  8  2  0
  8  9  1  0
  9 10  2  0
M  END
$$$$
