8 ENGINEERED: YES
     RDKit          3D

 35 40  0  0  0  0  0  0  0  0999 V2000
    8.3580   24.1269   34.0161 C   0  0  0  0  0  0  0  0  0  0  0  0
    7.1828   24.6360   33.2560 C   0  0  0  0  0  0  0  0  0  0  0  0
    6.2494   23.5364   32.8010 C   0  0  0  0  0  0  0  0  0  0  0  0
    6.9590   22.4430   32.0644 C   0  0  0  0  0  0  0  0  0  0  0  0
    8.2037   21.9697   32.7642 C   0  0  0  0  0  0  0  0  0  0  0  0
    9.0918   23.1017   33.2006 C   0  0  0  0  0  0  0  0  0  0  0  0
    5.3166   24.1981   31.7984 C   0  0  0  0  0  0  0  0  0  0  0  0
    4.4404   25.1413   32.5938 C   0  0  0  0  0  0  0  0  0  0  0  0
    5.2414   26.2144   33.2790 C   0  0  0  0  0  0  0  0  0  0  0  0
    6.3618   25.6033   34.0810 C   0  0  0  0  0  0  0  0  0  0  0  0
    3.3784   25.5559   31.7855 N   0  0  0  0  0  0  0  0  0  0  0  0
    3.7142   26.3364   30.6346 C   0  0  0  0  0  0  0  0  0  0  0  0
    2.3692   26.5150   30.0593 N   0  0  0  0  0  0  0  0  0  0  0  0
    1.7161   25.3102   30.3143 N   0  0  0  0  0  0  0  0  0  0  0  0
    2.4914   24.5549   31.2567 C   0  0  0  0  0  0  0  0  0  0  0  0
    1.7643   23.9227   32.2369 O   0  0  0  0  0  0  0  0  0  0  0  0
    0.4152   25.6003   30.8401 C   0  0  2  0  0  0  0  0  0  0  0  0
   -0.3682   24.4463   31.3549 C   0  0  0  0  0  0  0  0  0  0  0  0
   -0.1856   23.2905   30.3835 C   0  0  0  0  0  0  0  0  0  0  0  0
   -0.1576   23.8462   29.1035 O   0  0  0  0  0  0  0  0  0  0  0  0
   -0.9720   24.9585   28.9629 C   0  0  0  0  0  0  0  0  0  0  0  0
   -0.4162   26.1856   29.6794 C   0  0  0  0  0  0  0  0  0  0  0  0
    4.3038   27.6663   30.9928 C   0  0  0  0  0  0  0  0  0  0  0  0
    4.7528   27.6912   32.4357 C   0  0  0  0  0  0  0  0  0  0  0  0
    4.9207   29.1782   32.7775 C   0  0  0  0  0  0  0  0  0  0  0  0
    3.5797   29.6856   33.0015 N   0  0  0  0  0  0  0  0  0  0  0  0
    2.7092   29.3956   31.9075 C   0  0  0  0  0  0  0  0  0  0  0  0
    3.3817   28.8000   30.7009 C   0  0  0  0  0  0  0  0  0  0  0  0
    1.9350   30.5179   31.4444 N   0  0  0  0  0  0  0  0  0  0  0  0
    0.7034   30.1760   30.7959 C   0  0  1  0  0  0  0  0  0  0  0  0
   -0.5348   30.5644   31.5349 C   0  0  0  0  0  0  0  0  0  0  0  0
   -1.5734   31.0507   30.5507 C   0  0  0  0  0  0  0  0  0  0  0  0
   -1.1010   32.4062   30.0402 C   0  0  0  0  0  0  0  0  0  0  0  0
    0.2492   32.2060   29.3891 C   0  0  0  0  0  0  0  0  0  0  0  0
    0.6833   30.7669   29.4149 C   0  0  0  0  0  0  0  0  0  0  0  0
  1  2  1  0
  1  6  1  0
  2  3  1  0
  2 10  1  0
  3  4  1  0
  3  7  1  0
  4  5  1  0
  5  6  1  0
  7  8  1  0
  8  9  1  0
  8 11  1  0
  9 10  1  0
 11 12  1  0
 11 15  1  0
 12 13  1  0
 12 23  1  0
 13 14  1  0
 14 15  1  0
 17 14  1  6
 15 16  1  0
 17 18  1  0
 17 22  1  0
 18 19  1  0
 19 20  1  0
 20 21  1  0
 21 22  1  0
 23 24  1  0
 23 28  1  0
 24 25  1  0
 25 26  1  0
 26 27  1  0
 27 28  1  0
 27 29  1  0
 30 29  1  1
 30 31  1  0
 30 35  1  0
 31 32  1  0
 32 33  1  0
 33 34  1  0
 34 35  1  0
M  END
$$$$
