J6F
     RDKit          3D

 19 20  0  0  0  0  0  0  0  0999 V2000
    4.2446   26.8556   32.5783 C   0  0  0  0  0  0  0  0  0  0  0  0
    4.5775   28.3010   32.3619 C   0  0  0  0  0  0  0  0  0  0  0  0
    5.9314   28.4104   31.6459 C   0  0  0  0  0  0  0  0  0  0  0  0
    2.7645   27.7301   30.9986 C   0  0  0  0  0  0  0  0  0  0  0  0
    6.8834   27.7896   32.4545 N   0  0  0  0  0  0  0  0  0  0  0  0
    5.4138   26.0014   32.4589 N   0  0  0  0  0  0  0  0  0  0  0  0
   -0.6588   33.9586   33.0000 C   0  0  0  0  0  0  0  0  0  0  0  0
    0.8402   33.7860   32.8752 C   0  0  0  0  0  0  0  0  0  0  0  0
    1.0632   32.4639   32.1631 C   0  0  0  0  0  0  0  0  0  0  0  0
    2.5105   32.3144   31.7385 C   0  0  0  0  0  0  0  0  0  0  0  0
    2.6367   30.9476   31.1030 C   0  0  0  0  0  0  0  0  0  0  0  0
    2.8615   29.8652   32.1117 C   0  0  0  0  0  0  0  0  0  0  0  0
    3.5878   28.7934   31.4636 N   0  0  0  0  0  0  0  0  0  0  0  0
    6.2261   29.7628   31.4531 O   0  0  0  0  0  0  0  0  0  0  0  0
    6.5462   26.6249   33.1626 C   0  0  0  0  0  0  0  0  0  0  0  0
    7.5902   25.6971   33.0887 O   0  0  0  0  0  0  0  0  0  0  0  0
    5.1050   24.7674   33.1870 C   0  0  0  0  0  0  0  0  0  0  0  0
    3.2270   26.5087   31.6320 N   0  0  0  0  0  0  0  0  0  0  0  0
    2.9483   27.5235   29.1874 S   0  0  0  0  0  0  0  0  0  0  0  0
  2  1  1  0
  3  2  1  0
  5  3  1  0
  6  1  1  0
  8  7  1  0
  9  8  1  0
 10  9  1  0
 11 10  1  0
 12 11  1  0
 13 12  1  0
 13  4  1  0
 13  2  1  0
 14  3  1  0
 15  6  1  0
 15  5  1  0
 16 15  1  0
 17  6  1  0
 18  1  1  0
 18  4  1  0
 19  4  1  0
M  END
$$$$
