589
     RDKit          3D

 35 40  0  0  0  0  0  0  0  0999 V2000
    4.4523   -3.8876   -0.7016 C   0  0  0  0  0  0  0  0  0  0  0  0
    3.8421   -2.6535   -0.4869 C   0  0  0  0  0  0  0  0  0  0  0  0
    4.4427   -1.5140   -1.0329 C   0  0  0  0  0  0  0  0  0  0  0  0
    5.6129   -1.6020   -1.7686 C   0  0  0  0  0  0  0  0  0  0  0  0
    6.2026   -2.8455   -1.9689 C   0  0  0  0  0  0  0  0  0  0  0  0
    5.6234   -3.9893   -1.4359 C   0  0  0  0  0  0  0  0  0  0  0  0
    3.8401   -0.2724   -0.8241 C   0  0  0  0  0  0  0  0  0  0  0  0
    2.6672   -0.1703   -0.0887 C   0  0  0  0  0  0  0  0  0  0  0  0
    2.0899   -1.3080    0.4422 C   0  0  0  0  0  0  0  0  0  0  0  0
    2.6769   -2.5532    0.2439 C   0  0  0  0  0  0  0  0  0  0  0  0
    2.1099    1.1294    0.0829 N   0  0  0  0  0  0  0  0  0  0  0  0
    1.0400    1.6468   -0.5496 C   0  0  0  0  0  0  0  0  0  0  0  0
    0.8624    2.9007   -0.0866 N   0  0  0  0  0  0  0  0  0  0  0  0
    1.8052    3.1713    0.8241 N   0  0  0  0  0  0  0  0  0  0  0  0
    2.5727    2.0900    0.9325 C   0  0  0  0  0  0  0  0  0  0  0  0
    3.5786    1.9285    1.6851 O   0  0  0  0  0  0  0  0  0  0  0  0
    1.9480    4.4283    1.5534 C   0  0  2  0  0  0  0  0  0  0  0  0
    1.9712    4.2048    3.0274 C   0  0  0  0  0  0  0  0  0  0  0  0
    0.6250    4.1857    3.6765 C   0  0  0  0  0  0  0  0  0  0  0  0
   -0.1266    5.2744    3.2980 O   0  0  0  0  0  0  0  0  0  0  0  0
   -0.4399    5.1480    1.9280 C   0  0  0  0  0  0  0  0  0  0  0  0
    0.8696    5.3967    1.1978 C   0  0  0  0  0  0  0  0  0  0  0  0
    0.2037    0.9985   -1.5560 C   0  0  0  0  0  0  0  0  0  0  0  0
    0.8764    0.4210   -2.6270 C   0  0  0  0  0  0  0  0  0  0  0  0
    0.1889   -0.2220   -3.6425 C   0  0  0  0  0  0  0  0  0  0  0  0
   -1.1714   -0.2601   -3.5401 N   0  0  0  0  0  0  0  0  0  0  0  0
   -1.8446    0.2903   -2.5154 C   0  0  0  0  0  0  0  0  0  0  0  0
   -1.1618    0.9380   -1.4913 C   0  0  0  0  0  0  0  0  0  0  0  0
   -3.2644    0.1949   -2.5037 N   0  0  0  0  0  0  0  0  0  0  0  0
   -3.9822    0.9139   -3.5501 C   0  0  1  0  0  0  0  0  0  0  0  0
   -5.4460    0.5393   -3.5935 C   0  0  0  0  0  0  0  0  0  0  0  0
   -6.3541    1.6626   -3.1959 C   0  0  0  0  0  0  0  0  0  0  0  0
   -6.1680    2.8925   -4.0552 C   0  0  0  0  0  0  0  0  0  0  0  0
   -4.7324    3.0266   -4.4745 C   0  0  0  0  0  0  0  0  0  0  0  0
   -3.8747    2.4039   -3.3787 C   0  0  0  0  0  0  0  0  0  0  0  0
  1  2  2  0
  1  6  1  0
  2  3  1  0
  2 10  1  0
  3  4  2  0
  3  7  1  0
  4  5  1  0
  5  6  2  0
  7  8  2  0
  8  9  1  0
  8 11  1  0
  9 10  2  0
 11 12  1  0
 11 15  1  0
 12 13  2  0
 12 23  1  0
 13 14  1  0
 14 15  1  0
 17 14  1  6
 15 16  2  0
 17 18  1  0
 17 22  1  0
 18 19  1  1
 19 20  1  1
 21 20  1  6
 22 21  1  1
 23 24  2  0
 23 28  1  0
 24 25  1  0
 25 26  2  0
 26 27  1  0
 27 28  2  0
 27 29  1  0
 30 29  1  1
 31 30  1  6
 30 35  1  0
 32 31  1  6
 33 32  1  6
 34 33  1  6
 35 34  1  1
M  END
$$$$
