1a0q_ligand
     RDKit          3D

 23 23  0  0  0  0  0  0  0  0999 V2000
   13.2210   20.4743   59.4242 C   0  0  2  0  0  0  0  0  0  0  0  0
   12.6328   19.4973   58.4149 C   0  0  0  0  0  0  0  0  0  0  0  0
   12.0068   18.3014   59.0906 C   0  0  0  0  0  0  0  0  0  0  0  0
   11.1752   17.5575   58.0620 C   0  0  0  0  0  0  0  0  0  0  0  0
   12.0275   16.9847   56.9477 C   0  0  0  0  0  0  0  0  0  0  0  0
   14.6115   21.7176   55.6450 C   0  0  0  0  0  0  0  0  0  0  0  0
   14.7363   21.8946   54.2780 C   0  0  0  0  0  0  0  0  0  0  0  0
   15.9900   21.8125   53.7049 C   0  0  0  0  0  0  0  0  0  0  0  0
   17.0799   21.5550   54.5231 C   0  0  0  0  0  0  0  0  0  0  0  0
   16.9425   21.3799   55.8885 C   0  0  0  0  0  0  0  0  0  0  0  0
   15.6762   21.4625   56.4692 C   0  0  0  0  0  0  0  0  0  0  0  0
   12.5659   20.6893   61.7733 C   0  0  0  0  0  0  0  0  0  0  0  0
   11.9980   20.7238   64.1902 C   0  0  0  0  0  0  0  0  0  0  0  0
   11.5573   21.0458   62.8012 C   0  0  0  0  0  0  0  0  0  0  0  0
   11.7467   19.2790   64.4371 C   0  0  0  0  0  0  0  0  0  0  0  0
   13.1308   22.4465   57.6232 O   0  0  0  0  0  0  0  0  0  0  0  0
   14.4916   22.9532   59.7219 O   0  0  0  0  0  0  0  0  0  0  0  0
   15.5350   21.2877   57.8361 O   0  0  0  0  0  0  0  0  0  0  0  0
   13.6653   20.2190   62.2121 O   0  0  0  0  0  0  0  0  0  0  0  0
   11.1647   18.6361   63.5118 O   0  0  0  0  0  0  0  0  0  0  0  0
   12.1166   18.6404   65.6050 O   0  0  0  0  0  0  0  0  0  0  0  0
   12.2804   20.8765   60.4146 N   0  0  0  0  0  0  0  0  0  0  0  0
   14.0938   21.7720   58.5717 P   0  0  1  0  0  0  0  0  0  0  0  0
  1 23  1  0
  1 22  1  6
  1  2  1  0
  2  3  1  6
  3  4  1  6
  4  5  1  6
 22 12  1  0
 12 19  2  0
 14 12  1  1
 14 13  1  0
 13 15  1  6
 15 20  2  0
 15 21  1  0
 23 16  2  0
 23 17  1  1
 23 18  1  0
 18 11  1  0
 11 10  1  0
 11  6  2  0
  6  7  1  0
  7  8  2  0
  8  9  1  0
  9 10  2  0
M  END
$$$$
