1a0q_ligand
     RDKit          3D

 23 23  0  0  0  0  0  0  0  0999 V2000
   12.9175   20.6319   59.2916 C   0  0  2  0  0  0  0  0  0  0  0  0
   12.0267   19.8232   58.3578 C   0  0  0  0  0  0  0  0  0  0  0  0
   11.2032   18.8056   59.1095 C   0  0  0  0  0  0  0  0  0  0  0  0
   11.4536   17.4428   58.4904 C   0  0  0  0  0  0  0  0  0  0  0  0
   10.7552   17.2876   57.1547 C   0  0  0  0  0  0  0  0  0  0  0  0
   14.8078   20.6702   55.2827 C   0  0  0  0  0  0  0  0  0  0  0  0
   15.1153   20.9054   53.9539 C   0  0  0  0  0  0  0  0  0  0  0  0
   16.3256   21.4924   53.6416 C   0  0  0  0  0  0  0  0  0  0  0  0
   17.1898   21.8250   54.6741 C   0  0  0  0  0  0  0  0  0  0  0  0
   16.8712   21.5848   55.9988 C   0  0  0  0  0  0  0  0  0  0  0  0
   15.6485   20.9917   56.3161 C   0  0  0  0  0  0  0  0  0  0  0  0
   12.1126   20.7638   61.5998 C   0  0  0  0  0  0  0  0  0  0  0  0
   10.6626   20.5625   63.6054 C   0  0  0  0  0  0  0  0  0  0  0  0
   11.3721   21.4807   62.6670 C   0  0  0  0  0  0  0  0  0  0  0  0
   11.6825   19.7978   64.3713 C   0  0  0  0  0  0  0  0  0  0  0  0
   13.2609   22.4270   57.3421 O   0  0  0  0  0  0  0  0  0  0  0  0
   14.7445   22.7531   59.3928 O   0  0  0  0  0  0  0  0  0  0  0  0
   15.3262   20.7498   57.6414 O   0  0  0  0  0  0  0  0  0  0  0  0
   12.6553   19.6635   61.9421 O   0  0  0  0  0  0  0  0  0  0  0  0
   12.8327   20.3226   64.4690 O   0  0  0  0  0  0  0  0  0  0  0  0
   11.4208   18.5749   64.9585 O   0  0  0  0  0  0  0  0  0  0  0  0
   12.1828   21.3041   60.3092 N   0  0  0  0  0  0  0  0  0  0  0  0
   14.0555   21.6168   58.3391 P   0  0  1  0  0  0  0  0  0  0  0  0
  1 23  1  0
  1 22  1  6
  1  2  1  0
  2  3  1  6
  3  4  1  6
  4  5  1  6
 22 12  1  0
 12 19  2  0
 14 12  1  1
 14 13  1  0
 13 15  1  6
 15 20  2  0
 15 21  1  0
 23 16  2  0
 23 17  1  1
 23 18  1  0
 18 11  1  0
 11 10  1  0
 11  6  2  0
  6  7  1  0
  7  8  2  0
  8  9  1  0
  9 10  2  0
M  END
$$$$
