1a0q_ligand
     RDKit          3D

 23 23  0  0  0  0  0  0  0  0999 V2000
   12.8101   20.8785   59.5869 C   0  0  2  0  0  0  0  0  0  0  0  0
   12.3296   21.5653   60.8584 C   0  0  0  0  0  0  0  0  0  0  0  0
   12.7832   20.8326   62.0977 C   0  0  0  0  0  0  0  0  0  0  0  0
   12.2659   21.5857   63.3094 C   0  0  0  0  0  0  0  0  0  0  0  0
   12.5097   20.8265   64.5980 C   0  0  0  0  0  0  0  0  0  0  0  0
   14.7138   21.4808   55.4522 C   0  0  0  0  0  0  0  0  0  0  0  0
   15.0724   22.0428   54.2393 C   0  0  0  0  0  0  0  0  0  0  0  0
   16.2612   22.7399   54.1510 C   0  0  0  0  0  0  0  0  0  0  0  0
   17.0531   22.8509   55.2842 C   0  0  0  0  0  0  0  0  0  0  0  0
   16.6838   22.2847   56.4913 C   0  0  0  0  0  0  0  0  0  0  0  0
   15.4828   21.5799   56.5822 C   0  0  0  0  0  0  0  0  0  0  0  0
   12.1898   18.5178   59.3985 C   0  0  0  0  0  0  0  0  0  0  0  0
   11.4168   16.1713   59.1496 C   0  0  0  0  0  0  0  0  0  0  0  0
   12.4575   17.0896   59.6979 C   0  0  0  0  0  0  0  0  0  0  0  0
   11.5314   16.1676   57.6668 C   0  0  0  0  0  0  0  0  0  0  0  0
   13.3891   23.0359   58.1202 O   0  0  0  0  0  0  0  0  0  0  0  0
   15.0102   22.5546   60.0316 O   0  0  0  0  0  0  0  0  0  0  0  0
   15.1099   21.0116   57.7892 O   0  0  0  0  0  0  0  0  0  0  0  0
   11.0995   18.7632   58.7874 O   0  0  0  0  0  0  0  0  0  0  0  0
   11.1931   17.2324   57.0670 O   0  0  0  0  0  0  0  0  0  0  0  0
   11.9802   15.0750   56.9502 O   0  0  0  0  0  0  0  0  0  0  0  0
   13.1103   19.5008   59.7844 N   0  0  0  0  0  0  0  0  0  0  0  0
   14.0648   21.8693   58.8017 P   0  0  1  0  0  0  0  0  0  0  0  0
  1 23  1  0
  1 22  1  1
  1  2  1  0
  2  3  1  6
  3  4  1  6
  4  5  1  6
 22 12  1  0
 12 19  2  0
 14 12  1  1
 14 13  1  0
 13 15  1  6
 15 20  2  0
 15 21  1  0
 23 16  2  0
 23 17  1  1
 23 18  1  0
 18 11  1  0
 11 10  1  0
 11  6  2  0
  6  7  1  0
  7  8  2  0
  8  9  1  0
  9 10  2  0
M  END
$$$$
