3oy1
     RDKit          3D

 35 40  0  0  0  0  0  0  0  0999 V2000
  -17.6136   12.0939  -36.3581 C   0  0  0  0  0  0  0  0  0  0  0  0
  -18.5919   11.7932  -35.4528 C   0  0  0  0  0  0  0  0  0  0  0  0
  -18.5939   12.3687  -34.2016 C   0  0  0  0  0  0  0  0  0  0  0  0
  -17.6181   13.2616  -33.8184 C   0  0  0  0  0  0  0  0  0  0  0  0
  -16.6292   13.5656  -34.7335 C   0  0  0  0  0  0  0  0  0  0  0  0
  -16.6206   12.9931  -35.9888 C   0  0  0  0  0  0  0  0  0  0  0  0
  -19.5959   12.0490  -33.2998 C   0  0  0  0  0  0  0  0  0  0  0  0
  -20.6114   11.1523  -33.6279 C   0  0  0  0  0  0  0  0  0  0  0  0
  -20.6116   10.5793  -34.8705 C   0  0  0  0  0  0  0  0  0  0  0  0
  -19.6102   10.9008  -35.7673 C   0  0  0  0  0  0  0  0  0  0  0  0
  -21.5935   10.8916  -32.6299 N   0  0  0  0  0  0  0  0  0  0  0  0
  -21.8906    9.7102  -32.0591 C   0  0  0  0  0  0  0  0  0  0  0  0
  -22.8707    9.9062  -31.1743 N   0  0  0  0  0  0  0  0  0  0  0  0
  -23.2205   11.1987  -31.1567 N   0  0  0  0  0  0  0  0  0  0  0  0
  -22.4214   11.7874  -32.0605 C   0  0  0  0  0  0  0  0  0  0  0  0
  -22.4327   12.9928  -32.3437 O   0  0  0  0  0  0  0  0  0  0  0  0
  -24.2488   11.7396  -30.3102 C   0  0  2  0  0  0  0  0  0  0  0  0
  -25.4742   12.2075  -31.0100 C   0  0  0  0  0  0  0  0  0  0  0  0
  -25.2445   13.6319  -31.4597 C   0  0  0  0  0  0  0  0  0  0  0  0
  -25.4060   14.4508  -30.3407 O   0  0  0  0  0  0  0  0  0  0  0  0
  -24.8414   13.8688  -29.2119 C   0  0  0  0  0  0  0  0  0  0  0  0
  -23.6921   12.9470  -29.5654 C   0  0  0  0  0  0  0  0  0  0  0  0
  -21.2732    8.4173  -32.3313 C   0  0  0  0  0  0  0  0  0  0  0  0
  -19.9129    8.3853  -32.6391 C   0  0  0  0  0  0  0  0  0  0  0  0
  -19.2581    7.1943  -32.9092 C   0  0  0  0  0  0  0  0  0  0  0  0
  -19.9742    6.0411  -32.8685 N   0  0  0  0  0  0  0  0  0  0  0  0
  -21.2838    6.0669  -32.5727 C   0  0  0  0  0  0  0  0  0  0  0  0
  -21.9711    7.2256  -32.2987 C   0  0  0  0  0  0  0  0  0  0  0  0
  -21.9865    4.8330  -32.5433 N   0  0  0  0  0  0  0  0  0  0  0  0
  -23.3726    4.8017  -32.0896 C   0  0  1  0  0  0  0  0  0  0  0  0
  -23.9473    3.3963  -32.2292 C   0  0  0  0  0  0  0  0  0  0  0  0
  -25.4527    3.5309  -32.0385 C   0  0  0  0  0  0  0  0  0  0  0  0
  -25.7015    3.9586  -30.6105 C   0  0  0  0  0  0  0  0  0  0  0  0
  -24.4264    4.2893  -29.8823 C   0  0  0  0  0  0  0  0  0  0  0  0
  -23.4991    5.1875  -30.6324 C   0  0  0  0  0  0  0  0  0  0  0  0
  1  2  2  0
  2  3  1  0
  3  4  2  0
  4  5  1  0
  1  6  1  0
  5  6  2  0
  3  7  1  0
  7  8  2  0
  8  9  1  0
  2 10  1  0
  9 10  2  0
  8 11  1  0
 11 12  1  0
 12 13  2  0
 13 14  1  0
 11 15  1  0
 14 15  1  0
 15 16  2  0
 17 14  1  6
 17 18  1  0
 18 19  1  0
 19 20  1  0
 20 21  1  0
 17 22  1  0
 21 22  1  0
 12 23  1  0
 23 24  2  0
 24 25  1  0
 25 26  2  0
 26 27  1  0
 23 28  1  0
 27 28  2  0
 27 29  1  0
 30 29  1  1
 30 31  1  0
 31 32  1  0
 32 33  1  0
 33 34  1  0
 30 35  1  0
 34 35  1  0
M  END
$$$$
