3oy1
     RDKit          3D

 35 40  0  0  0  0  0  0  0  0999 V2000
  -16.1952   12.0369  -35.4801 C   0  0  0  0  0  0  0  0  0  0  0  0
  -17.3631   11.8947  -34.7852 C   0  0  0  0  0  0  0  0  0  0  0  0
  -18.4397   11.2427  -35.3441 C   0  0  0  0  0  0  0  0  0  0  0  0
  -18.3807   10.7134  -36.6140 C   0  0  0  0  0  0  0  0  0  0  0  0
  -17.2002   10.8570  -37.3165 C   0  0  0  0  0  0  0  0  0  0  0  0
  -16.1174   11.5091  -36.7631 C   0  0  0  0  0  0  0  0  0  0  0  0
  -19.6141   11.1104  -34.6209 C   0  0  0  0  0  0  0  0  0  0  0  0
  -19.7363   11.6243  -33.3310 C   0  0  0  0  0  0  0  0  0  0  0  0
  -18.6679   12.2726  -32.7735 C   0  0  0  0  0  0  0  0  0  0  0  0
  -17.4981   12.4025  -33.4982 C   0  0  0  0  0  0  0  0  0  0  0  0
  -20.9854   11.4351  -32.6735 N   0  0  0  0  0  0  0  0  0  0  0  0
  -21.5741   10.2698  -32.3486 C   0  0  0  0  0  0  0  0  0  0  0  0
  -22.7335   10.5395  -31.7445 N   0  0  0  0  0  0  0  0  0  0  0  0
  -22.9134   11.8643  -31.6685 N   0  0  0  0  0  0  0  0  0  0  0  0
  -21.8251   12.3966  -32.2466 C   0  0  0  0  0  0  0  0  0  0  0  0
  -21.6085   13.6088  -32.3770 O   0  0  0  0  0  0  0  0  0  0  0  0
  -24.0657   12.4840  -31.0730 C   0  0  2  0  0  0  0  0  0  0  0  0
  -23.8577   13.0512  -29.7145 C   0  0  0  0  0  0  0  0  0  0  0  0
  -24.0645   11.9450  -28.7058 C   0  0  0  0  0  0  0  0  0  0  0  0
  -25.4416   11.7626  -28.5675 O   0  0  0  0  0  0  0  0  0  0  0  0
  -26.0820   11.8515  -29.7978 C   0  0  0  0  0  0  0  0  0  0  0  0
  -25.1726   11.4451  -30.9396 C   0  0  0  0  0  0  0  0  0  0  0  0
  -21.0673    8.9249  -32.5956 C   0  0  0  0  0  0  0  0  0  0  0  0
  -19.7468    8.7833  -33.0228 C   0  0  0  0  0  0  0  0  0  0  0  0
  -19.1964    7.5374  -33.2773 C   0  0  0  0  0  0  0  0  0  0  0  0
  -19.9762    6.4396  -33.1010 N   0  0  0  0  0  0  0  0  0  0  0  0
  -21.2478    6.5709  -32.6899 C   0  0  0  0  0  0  0  0  0  0  0  0
  -21.8323    7.7870  -32.4266 C   0  0  0  0  0  0  0  0  0  0  0  0
  -22.0204    5.3912  -32.5212 N   0  0  0  0  0  0  0  0  0  0  0  0
  -22.9991    5.3169  -31.4419 C   0  0  1  0  0  0  0  0  0  0  0  0
  -23.5006    6.7108  -31.0807 C   0  0  0  0  0  0  0  0  0  0  0  0
  -24.2554    6.5642  -29.7656 C   0  0  0  0  0  0  0  0  0  0  0  0
  -25.4808    5.7195  -30.0274 C   0  0  0  0  0  0  0  0  0  0  0  0
  -25.4920    5.1438  -31.4181 C   0  0  0  0  0  0  0  0  0  0  0  0
  -24.2105    4.4995  -31.8327 C   0  0  0  0  0  0  0  0  0  0  0  0
  1  2  2  0
  2  3  1  0
  3  4  2  0
  4  5  1  0
  1  6  1  0
  5  6  2  0
  3  7  1  0
  7  8  2  0
  8  9  1  0
  2 10  1  0
  9 10  2  0
  8 11  1  0
 11 12  1  0
 12 13  2  0
 13 14  1  0
 11 15  1  0
 14 15  1  0
 15 16  2  0
 17 14  1  1
 17 18  1  0
 18 19  1  0
 19 20  1  0
 20 21  1  0
 17 22  1  0
 21 22  1  0
 12 23  1  0
 23 24  2  0
 24 25  1  0
 25 26  2  0
 26 27  1  0
 23 28  1  0
 27 28  2  0
 27 29  1  0
 30 29  1  6
 30 31  1  0
 31 32  1  0
 32 33  1  0
 33 34  1  0
 30 35  1  0
 34 35  1  0
M  END
$$$$
