3oy1
     RDKit          3D

 35 40  0  0  0  0  0  0  0  0999 V2000
  -17.5949   11.2895  -36.2755 C   0  0  0  0  0  0  0  0  0  0  0  0
  -18.6275   11.1321  -35.3944 C   0  0  0  0  0  0  0  0  0  0  0  0
  -18.6505   11.8273  -34.2058 C   0  0  0  0  0  0  0  0  0  0  0  0
  -17.6422   12.7003  -33.8628 C   0  0  0  0  0  0  0  0  0  0  0  0
  -16.5985   12.8594  -34.7534 C   0  0  0  0  0  0  0  0  0  0  0  0
  -16.5686   12.1664  -35.9461 C   0  0  0  0  0  0  0  0  0  0  0  0
  -19.7075   11.6520  -33.3275 C   0  0  0  0  0  0  0  0  0  0  0  0
  -20.7580   10.7828  -33.6173 C   0  0  0  0  0  0  0  0  0  0  0  0
  -20.7374   10.0910  -34.7977 C   0  0  0  0  0  0  0  0  0  0  0  0
  -19.6811   10.2687  -35.6712 C   0  0  0  0  0  0  0  0  0  0  0  0
  -21.7959   10.6745  -32.6480 N   0  0  0  0  0  0  0  0  0  0  0  0
  -22.1887    9.5716  -31.9854 C   0  0  0  0  0  0  0  0  0  0  0  0
  -23.1920    9.9063  -31.1709 N   0  0  0  0  0  0  0  0  0  0  0  0
  -23.4627   11.2123  -31.2900 N   0  0  0  0  0  0  0  0  0  0  0  0
  -22.5913   11.6659  -32.2048 C   0  0  0  0  0  0  0  0  0  0  0  0
  -22.5169   12.8376  -32.5985 O   0  0  0  0  0  0  0  0  0  0  0  0
  -24.4913   11.8888  -30.5478 C   0  0  2  0  0  0  0  0  0  0  0  0
  -25.3278   12.8366  -31.3304 C   0  0  0  0  0  0  0  0  0  0  0  0
  -24.6214   14.1722  -31.3621 C   0  0  0  0  0  0  0  0  0  0  0  0
  -24.8400   14.7857  -30.1273 O   0  0  0  0  0  0  0  0  0  0  0  0
  -24.7577   13.8631  -29.0911 C   0  0  0  0  0  0  0  0  0  0  0  0
  -23.8436   12.7051  -29.4359 C   0  0  0  0  0  0  0  0  0  0  0  0
  -21.6402    8.2257  -32.1066 C   0  0  0  0  0  0  0  0  0  0  0  0
  -20.3397    8.0823  -32.5907 C   0  0  0  0  0  0  0  0  0  0  0  0
  -19.7522    6.8354  -32.7332 C   0  0  0  0  0  0  0  0  0  0  0  0
  -20.4750    5.7387  -32.3881 N   0  0  0  0  0  0  0  0  0  0  0  0
  -21.7271    5.8718  -31.9216 C   0  0  0  0  0  0  0  0  0  0  0  0
  -22.3469    7.0889  -31.7650 C   0  0  0  0  0  0  0  0  0  0  0  0
  -22.4397    4.6931  -31.5751 N   0  0  0  0  0  0  0  0  0  0  0  0
  -23.8183    4.7934  -31.1085 C   0  0  1  0  0  0  0  0  0  0  0  0
  -23.8884    5.6166  -29.8270 C   0  0  0  0  0  0  0  0  0  0  0  0
  -25.2849    5.4005  -29.2578 C   0  0  0  0  0  0  0  0  0  0  0  0
  -26.2761    6.0143  -30.2193 C   0  0  0  0  0  0  0  0  0  0  0  0
  -25.6243    6.4769  -31.4947 C   0  0  0  0  0  0  0  0  0  0  0  0
  -24.7096    5.4772  -32.1216 C   0  0  0  0  0  0  0  0  0  0  0  0
  1  2  2  0
  2  3  1  0
  3  4  2  0
  4  5  1  0
  1  6  1  0
  5  6  2  0
  3  7  1  0
  7  8  2  0
  8  9  1  0
  2 10  1  0
  9 10  2  0
  8 11  1  0
 11 12  1  0
 12 13  2  0
 13 14  1  0
 11 15  1  0
 14 15  1  0
 15 16  2  0
 17 14  1  6
 17 18  1  0
 18 19  1  0
 19 20  1  0
 20 21  1  0
 17 22  1  0
 21 22  1  0
 12 23  1  0
 23 24  2  0
 24 25  1  0
 25 26  2  0
 26 27  1  0
 23 28  1  0
 27 28  2  0
 27 29  1  0
 30 29  1  6
 30 31  1  0
 31 32  1  0
 32 33  1  0
 33 34  1  0
 30 35  1  0
 34 35  1  0
M  END
$$$$
