3oy1
     RDKit          3D

 35 40  0  0  0  0  0  0  0  0999 V2000
  -24.2683    3.4233  -31.6528 C   0  0  0  0  0  0  0  0  0  0  0  0
  -23.9111    4.7396  -31.5682 C   0  0  0  0  0  0  0  0  0  0  0  0
  -24.1083    5.4489  -30.4043 C   0  0  0  0  0  0  0  0  0  0  0  0
  -24.6683    4.8635  -29.2906 C   0  0  0  0  0  0  0  0  0  0  0  0
  -25.0293    3.5330  -29.3761 C   0  0  0  0  0  0  0  0  0  0  0  0
  -24.8348    2.8160  -30.5387 C   0  0  0  0  0  0  0  0  0  0  0  0
  -23.7386    6.7826  -30.3413 C   0  0  0  0  0  0  0  0  0  0  0  0
  -23.1670    7.4318  -31.4344 C   0  0  0  0  0  0  0  0  0  0  0  0
  -22.9700    6.7290  -32.5920 C   0  0  0  0  0  0  0  0  0  0  0  0
  -23.3403    5.3987  -32.6507 C   0  0  0  0  0  0  0  0  0  0  0  0
  -22.8226    8.8035  -31.2664 N   0  0  0  0  0  0  0  0  0  0  0  0
  -21.6962    9.4220  -31.6645 C   0  0  0  0  0  0  0  0  0  0  0  0
  -21.7756   10.7068  -31.3110 N   0  0  0  0  0  0  0  0  0  0  0  0
  -22.9373   10.9395  -30.6871 N   0  0  0  0  0  0  0  0  0  0  0  0
  -23.5666    9.7540  -30.6705 C   0  0  0  0  0  0  0  0  0  0  0  0
  -24.6830    9.5467  -30.1765 O   0  0  0  0  0  0  0  0  0  0  0  0
  -23.3313   12.2256  -30.1798 C   0  0  2  0  0  0  0  0  0  0  0  0
  -24.3809   12.2048  -29.1270 C   0  0  0  0  0  0  0  0  0  0  0  0
  -25.7300   12.1794  -29.8077 C   0  0  0  0  0  0  0  0  0  0  0  0
  -25.9992   13.4784  -30.2423 O   0  0  0  0  0  0  0  0  0  0  0  0
  -24.8561   14.0785  -30.7570 C   0  0  0  0  0  0  0  0  0  0  0  0
  -23.8898   13.0598  -31.3264 C   0  0  0  0  0  0  0  0  0  0  0  0
  -20.5621    8.8285  -32.3633 C   0  0  0  0  0  0  0  0  0  0  0  0
  -20.3691    7.4507  -32.2608 C   0  0  0  0  0  0  0  0  0  0  0  0
  -19.3137    6.8168  -32.8969 C   0  0  0  0  0  0  0  0  0  0  0  0
  -18.4574    7.5714  -33.6330 N   0  0  0  0  0  0  0  0  0  0  0  0
  -18.6392    8.8979  -33.7345 C   0  0  0  0  0  0  0  0  0  0  0  0
  -19.6720    9.5656  -33.1202 C   0  0  0  0  0  0  0  0  0  0  0  0
  -17.7151    9.6408  -34.5164 N   0  0  0  0  0  0  0  0  0  0  0  0
  -17.8716   11.0860  -34.6402 C   0  0  1  0  0  0  0  0  0  0  0  0
  -16.6373   11.7017  -35.2901 C   0  0  0  0  0  0  0  0  0  0  0  0
  -16.7559   13.2070  -35.0885 C   0  0  0  0  0  0  0  0  0  0  0  0
  -17.9473   13.6876  -35.8843 C   0  0  0  0  0  0  0  0  0  0  0  0
  -18.7407   12.5502  -36.4693 C   0  0  0  0  0  0  0  0  0  0  0  0
  -19.0562   11.4542  -35.5058 C   0  0  0  0  0  0  0  0  0  0  0  0
  1  2  2  0
  2  3  1  0
  3  4  2  0
  4  5  1  0
  1  6  1  0
  5  6  2  0
  3  7  1  0
  7  8  2  0
  8  9  1  0
  2 10  1  0
  9 10  2  0
  8 11  1  0
 11 12  1  0
 12 13  2  0
 13 14  1  0
 11 15  1  0
 14 15  1  0
 15 16  2  0
 17 14  1  6
 17 18  1  0
 18 19  1  0
 19 20  1  0
 20 21  1  0
 17 22  1  0
 21 22  1  0
 12 23  1  0
 23 24  2  0
 24 25  1  0
 25 26  2  0
 26 27  1  0
 23 28  1  0
 27 28  2  0
 27 29  1  0
 30 29  1  6
 30 31  1  0
 31 32  1  0
 32 33  1  0
 33 34  1  0
 30 35  1  0
 34 35  1  0
M  END
$$$$
