3oy1
     RDKit          3D

 35 40  0  0  0  0  0  0  0  0999 V2000
  -16.5730   11.1495  -36.2782 C   0  0  0  0  0  0  0  0  0  0  0  0
  -17.7039   11.0921  -35.5133 C   0  0  0  0  0  0  0  0  0  0  0  0
  -17.9375   12.0289  -34.5312 C   0  0  0  0  0  0  0  0  0  0  0  0
  -17.0477   13.0505  -34.2845 C   0  0  0  0  0  0  0  0  0  0  0  0
  -15.9046   13.1086  -35.0577 C   0  0  0  0  0  0  0  0  0  0  0  0
  -15.6637   12.1737  -36.0434 C   0  0  0  0  0  0  0  0  0  0  0  0
  -19.0910   11.9510  -33.7677 C   0  0  0  0  0  0  0  0  0  0  0  0
  -20.0301   10.9408  -33.9689 C   0  0  0  0  0  0  0  0  0  0  0  0
  -19.8002   10.0089  -34.9442 C   0  0  0  0  0  0  0  0  0  0  0  0
  -18.6482   10.0900  -35.7037 C   0  0  0  0  0  0  0  0  0  0  0  0
  -21.1818   10.9501  -33.1311 N   0  0  0  0  0  0  0  0  0  0  0  0
  -21.7099    9.9173  -32.4497 C   0  0  0  0  0  0  0  0  0  0  0  0
  -22.7850   10.3551  -31.7906 N   0  0  0  0  0  0  0  0  0  0  0  0
  -22.9694   11.6597  -32.0300 N   0  0  0  0  0  0  0  0  0  0  0  0
  -21.9710   12.0058  -32.8578 C   0  0  0  0  0  0  0  0  0  0  0  0
  -21.7875   13.1410  -33.3172 O   0  0  0  0  0  0  0  0  0  0  0  0
  -24.0428   12.4339  -31.4686 C   0  0  2  0  0  0  0  0  0  0  0  0
  -23.8479   12.8733  -30.0617 C   0  0  0  0  0  0  0  0  0  0  0  0
  -24.3171   11.7614  -29.1520 C   0  0  0  0  0  0  0  0  0  0  0  0
  -25.7117   11.8140  -29.1188 O   0  0  0  0  0  0  0  0  0  0  0  0
  -26.2301   12.0870  -30.3792 C   0  0  0  0  0  0  0  0  0  0  0  0
  -25.3168   11.5977  -31.4847 C   0  0  0  0  0  0  0  0  0  0  0  0
  -21.2231    8.5431  -32.4110 C   0  0  0  0  0  0  0  0  0  0  0  0
  -19.9403    8.2817  -32.8929 C   0  0  0  0  0  0  0  0  0  0  0  0
  -19.4106    7.0012  -32.8881 C   0  0  0  0  0  0  0  0  0  0  0  0
  -20.1733    5.9897  -32.3988 N   0  0  0  0  0  0  0  0  0  0  0  0
  -21.4087    6.2365  -31.9339 C   0  0  0  0  0  0  0  0  0  0  0  0
  -21.9715    7.4906  -31.9204 C   0  0  0  0  0  0  0  0  0  0  0  0
  -22.1647    5.1434  -31.4332 N   0  0  0  0  0  0  0  0  0  0  0  0
  -23.5345    5.3597  -30.9802 C   0  0  1  0  0  0  0  0  0  0  0  0
  -24.5262    4.8540  -32.0221 C   0  0  0  0  0  0  0  0  0  0  0  0
  -25.8884    5.4003  -31.6139 C   0  0  0  0  0  0  0  0  0  0  0  0
  -26.2723    4.7531  -30.3033 C   0  0  0  0  0  0  0  0  0  0  0  0
  -25.1535    3.9310  -29.7222 C   0  0  0  0  0  0  0  0  0  0  0  0
  -23.8284    4.6185  -29.6948 C   0  0  0  0  0  0  0  0  0  0  0  0
  1  2  2  0
  2  3  1  0
  3  4  2  0
  4  5  1  0
  1  6  1  0
  5  6  2  0
  3  7  1  0
  7  8  2  0
  8  9  1  0
  2 10  1  0
  9 10  2  0
  8 11  1  0
 11 12  1  0
 12 13  2  0
 13 14  1  0
 11 15  1  0
 14 15  1  0
 15 16  2  0
 17 14  1  1
 17 18  1  0
 18 19  1  0
 19 20  1  0
 20 21  1  0
 17 22  1  0
 21 22  1  0
 12 23  1  0
 23 24  2  0
 24 25  1  0
 25 26  2  0
 26 27  1  0
 23 28  1  0
 27 28  2  0
 27 29  1  0
 30 29  1  6
 30 31  1  0
 31 32  1  0
 32 33  1  0
 33 34  1  0
 30 35  1  0
 34 35  1  0
M  END
$$$$
