3oy1
     RDKit          3D

 35 40  0  0  0  0  0  0  0  0999 V2000
  -16.5621   12.4510  -34.8304 C   0  0  0  0  0  0  0  0  0  0  0  0
  -17.7309   12.1263  -34.2013 C   0  0  0  0  0  0  0  0  0  0  0  0
  -18.8515   11.7902  -34.9280 C   0  0  0  0  0  0  0  0  0  0  0  0
  -18.8369   11.7687  -36.3048 C   0  0  0  0  0  0  0  0  0  0  0  0
  -17.6555   12.0969  -36.9408 C   0  0  0  0  0  0  0  0  0  0  0  0
  -16.5288   12.4346  -36.2195 C   0  0  0  0  0  0  0  0  0  0  0  0
  -20.0258   11.4646  -34.2689 C   0  0  0  0  0  0  0  0  0  0  0  0
  -20.1042   11.4680  -32.8772 C   0  0  0  0  0  0  0  0  0  0  0  0
  -18.9921   11.8016  -32.1530 C   0  0  0  0  0  0  0  0  0  0  0  0
  -17.8226   12.1258  -32.8143 C   0  0  0  0  0  0  0  0  0  0  0  0
  -21.3573   11.1182  -32.2977 N   0  0  0  0  0  0  0  0  0  0  0  0
  -21.8295    9.8839  -32.0459 C   0  0  0  0  0  0  0  0  0  0  0  0
  -23.0416   10.0017  -31.4992 N   0  0  0  0  0  0  0  0  0  0  0  0
  -23.3708   11.2950  -31.3889 N   0  0  0  0  0  0  0  0  0  0  0  0
  -22.3195   11.9650  -31.8865 C   0  0  0  0  0  0  0  0  0  0  0  0
  -22.2319   13.1978  -31.9636 O   0  0  0  0  0  0  0  0  0  0  0  0
  -24.6142   11.7616  -30.8385 C   0  0  2  0  0  0  0  0  0  0  0  0
  -25.0725   13.0891  -31.3263 C   0  0  0  0  0  0  0  0  0  0  0  0
  -24.4197   14.1542  -30.4758 C   0  0  0  0  0  0  0  0  0  0  0  0
  -25.1176   14.2050  -29.2678 O   0  0  0  0  0  0  0  0  0  0  0  0
  -25.4521   12.9285  -28.8316 C   0  0  0  0  0  0  0  0  0  0  0  0
  -24.4701   11.8861  -29.3265 C   0  0  0  0  0  0  0  0  0  0  0  0
  -21.1648    8.6128  -32.3093 C   0  0  0  0  0  0  0  0  0  0  0  0
  -19.8061    8.6296  -32.6253 C   0  0  0  0  0  0  0  0  0  0  0  0
  -19.1079    7.4618  -32.8878 C   0  0  0  0  0  0  0  0  0  0  0  0
  -19.7792    6.2826  -32.8311 N   0  0  0  0  0  0  0  0  0  0  0  0
  -21.0870    6.2614  -32.5273 C   0  0  0  0  0  0  0  0  0  0  0  0
  -21.8164    7.3957  -32.2604 C   0  0  0  0  0  0  0  0  0  0  0  0
  -21.7417    5.0019  -32.4813 N   0  0  0  0  0  0  0  0  0  0  0  0
  -22.8843    4.8138  -31.5939 C   0  0  1  0  0  0  0  0  0  0  0  0
  -23.7117    6.0919  -31.5124 C   0  0  0  0  0  0  0  0  0  0  0  0
  -24.6729    5.9034  -30.3457 C   0  0  0  0  0  0  0  0  0  0  0  0
  -25.6303    4.7924  -30.7102 C   0  0  0  0  0  0  0  0  0  0  0  0
  -25.2472    4.1056  -31.9936 C   0  0  0  0  0  0  0  0  0  0  0  0
  -23.8075    3.7209  -32.0852 C   0  0  0  0  0  0  0  0  0  0  0  0
  1  2  2  0
  2  3  1  0
  3  4  2  0
  4  5  1  0
  1  6  1  0
  5  6  2  0
  3  7  1  0
  7  8  2  0
  8  9  1  0
  2 10  1  0
  9 10  2  0
  8 11  1  0
 11 12  1  0
 12 13  2  0
 13 14  1  0
 11 15  1  0
 14 15  1  0
 15 16  2  0
 17 14  1  6
 17 18  1  0
 18 19  1  0
 19 20  1  0
 20 21  1  0
 17 22  1  0
 21 22  1  0
 12 23  1  0
 23 24  2  0
 24 25  1  0
 25 26  2  0
 26 27  1  0
 23 28  1  0
 27 28  2  0
 27 29  1  0
 30 29  1  6
 30 31  1  0
 31 32  1  0
 32 33  1  0
 33 34  1  0
 30 35  1  0
 34 35  1  0
M  END
$$$$
