3oy1
     RDKit          3D

 35 40  0  0  0  0  0  0  0  0999 V2000
  -17.0366   12.8603  -35.3014 C   0  0  0  0  0  0  0  0  0  0  0  0
  -18.0933   12.4735  -34.5262 C   0  0  0  0  0  0  0  0  0  0  0  0
  -19.0217   11.5735  -35.0003 C   0  0  0  0  0  0  0  0  0  0  0  0
  -18.9213   11.0336  -36.2631 C   0  0  0  0  0  0  0  0  0  0  0  0
  -17.8531   11.4246  -37.0467 C   0  0  0  0  0  0  0  0  0  0  0  0
  -16.9191   12.3257  -36.5786 C   0  0  0  0  0  0  0  0  0  0  0  0
  -20.0851   11.1957  -34.1967 C   0  0  0  0  0  0  0  0  0  0  0  0
  -20.2421   11.7067  -32.9094 C   0  0  0  0  0  0  0  0  0  0  0  0
  -19.3209   12.6011  -32.4361 C   0  0  0  0  0  0  0  0  0  0  0  0
  -18.2614   12.9755  -33.2409 C   0  0  0  0  0  0  0  0  0  0  0  0
  -21.3690   11.2542  -32.1652 N   0  0  0  0  0  0  0  0  0  0  0  0
  -21.7309    9.9829  -31.9149 C   0  0  0  0  0  0  0  0  0  0  0  0
  -22.8469   10.0007  -31.1826 N   0  0  0  0  0  0  0  0  0  0  0  0
  -23.2218   11.2649  -30.9493 N   0  0  0  0  0  0  0  0  0  0  0  0
  -22.2977   12.0205  -31.5633 C   0  0  0  0  0  0  0  0  0  0  0  0
  -22.2876   13.2586  -31.5824 O   0  0  0  0  0  0  0  0  0  0  0  0
  -24.3862   11.6285  -30.1887 C   0  0  2  0  0  0  0  0  0  0  0  0
  -25.5950   11.9611  -30.9877 C   0  0  0  0  0  0  0  0  0  0  0  0
  -25.5200   13.4215  -31.3691 C   0  0  0  0  0  0  0  0  0  0  0  0
  -25.8914   14.1626  -30.2458 O   0  0  0  0  0  0  0  0  0  0  0  0
  -25.3581   13.6114  -29.0867 C   0  0  0  0  0  0  0  0  0  0  0  0
  -24.0676   12.8650  -29.3570 C   0  0  0  0  0  0  0  0  0  0  0  0
  -21.0503    8.7685  -32.3495 C   0  0  0  0  0  0  0  0  0  0  0  0
  -19.8069    8.8928  -32.9698 C   0  0  0  0  0  0  0  0  0  0  0  0
  -19.1015    7.7839  -33.4091 C   0  0  0  0  0  0  0  0  0  0  0  0
  -19.6496    6.5554  -33.2226 N   0  0  0  0  0  0  0  0  0  0  0  0
  -20.8461    6.4309  -32.6260 C   0  0  0  0  0  0  0  0  0  0  0  0
  -21.5783    7.5038  -32.1758 C   0  0  0  0  0  0  0  0  0  0  0  0
  -21.3745    5.1237  -32.4552 N   0  0  0  0  0  0  0  0  0  0  0  0
  -22.3247    4.8636  -31.3793 C   0  0  1  0  0  0  0  0  0  0  0  0
  -23.5268    5.7947  -31.4935 C   0  0  0  0  0  0  0  0  0  0  0  0
  -24.2878    5.6708  -30.1796 C   0  0  0  0  0  0  0  0  0  0  0  0
  -24.8374    4.2656  -30.0944 C   0  0  0  0  0  0  0  0  0  0  0  0
  -24.3324    3.3857  -31.2063 C   0  0  0  0  0  0  0  0  0  0  0  0
  -22.8568    3.4483  -31.4250 C   0  0  0  0  0  0  0  0  0  0  0  0
  1  2  2  0
  2  3  1  0
  3  4  2  0
  4  5  1  0
  1  6  1  0
  5  6  2  0
  3  7  1  0
  7  8  2  0
  8  9  1  0
  2 10  1  0
  9 10  2  0
  8 11  1  0
 11 12  1  0
 12 13  2  0
 13 14  1  0
 11 15  1  0
 14 15  1  0
 15 16  2  0
 17 14  1  6
 17 18  1  0
 18 19  1  0
 19 20  1  0
 20 21  1  0
 17 22  1  0
 21 22  1  0
 12 23  1  0
 23 24  2  0
 24 25  1  0
 25 26  2  0
 26 27  1  0
 23 28  1  0
 27 28  2  0
 27 29  1  0
 30 29  1  6
 30 31  1  0
 31 32  1  0
 32 33  1  0
 33 34  1  0
 30 35  1  0
 34 35  1  0
M  END
$$$$
