3oy1
     RDKit          3D

 35 40  0  0  0  0  0  0  0  0999 V2000
  -17.0169   11.4564  -36.2221 C   0  0  0  0  0  0  0  0  0  0  0  0
  -18.0920   11.3309  -35.3881 C   0  0  0  0  0  0  0  0  0  0  0  0
  -18.1055   11.9521  -34.1590 C   0  0  0  0  0  0  0  0  0  0  0  0
  -17.0449   12.7169  -33.7272 C   0  0  0  0  0  0  0  0  0  0  0  0
  -15.9581   12.8438  -34.5702 C   0  0  0  0  0  0  0  0  0  0  0  0
  -15.9374   12.2245  -35.8030 C   0  0  0  0  0  0  0  0  0  0  0  0
  -19.2065   11.8109  -33.3298 C   0  0  0  0  0  0  0  0  0  0  0  0
  -20.3109   11.0501  -33.7096 C   0  0  0  0  0  0  0  0  0  0  0  0
  -20.2998   10.4320  -34.9304 C   0  0  0  0  0  0  0  0  0  0  0  0
  -19.1996   10.5753  -35.7547 C   0  0  0  0  0  0  0  0  0  0  0  0
  -21.3909   10.9686  -32.7848 N   0  0  0  0  0  0  0  0  0  0  0  0
  -21.8827    9.8656  -32.1919 C   0  0  0  0  0  0  0  0  0  0  0  0
  -22.8923   10.2303  -31.3985 N   0  0  0  0  0  0  0  0  0  0  0  0
  -23.0695   11.5561  -31.4625 N   0  0  0  0  0  0  0  0  0  0  0  0
  -22.1344   11.9907  -32.3218 C   0  0  0  0  0  0  0  0  0  0  0  0
  -21.9659   13.1716  -32.6543 O   0  0  0  0  0  0  0  0  0  0  0  0
  -24.0786   12.2666  -30.7251 C   0  0  2  0  0  0  0  0  0  0  0  0
  -24.1873   13.7188  -31.0244 C   0  0  0  0  0  0  0  0  0  0  0  0
  -23.1897   14.4537  -30.1592 C   0  0  0  0  0  0  0  0  0  0  0  0
  -23.7360   14.5379  -28.8773 O   0  0  0  0  0  0  0  0  0  0  0  0
  -24.3753   13.3539  -28.5295 C   0  0  0  0  0  0  0  0  0  0  0  0
  -23.7727   12.1568  -29.2363 C   0  0  0  0  0  0  0  0  0  0  0  0
  -21.4218    8.4922  -32.3598 C   0  0  0  0  0  0  0  0  0  0  0  0
  -20.1494    8.2815  -32.8914 C   0  0  0  0  0  0  0  0  0  0  0  0
  -19.6441    7.0050  -33.0797 C   0  0  0  0  0  0  0  0  0  0  0  0
  -20.4208    5.9464  -32.7327 N   0  0  0  0  0  0  0  0  0  0  0  0
  -21.6462    6.1442  -32.2206 C   0  0  0  0  0  0  0  0  0  0  0  0
  -22.1849    7.3926  -32.0176 C   0  0  0  0  0  0  0  0  0  0  0  0
  -22.4176    5.0031  -31.8741 N   0  0  0  0  0  0  0  0  0  0  0  0
  -23.7592    5.1768  -31.3280 C   0  0  1  0  0  0  0  0  0  0  0  0
  -24.8067    5.0003  -32.4219 C   0  0  0  0  0  0  0  0  0  0  0  0
  -26.1207    5.5039  -31.8384 C   0  0  0  0  0  0  0  0  0  0  0  0
  -26.5126    4.5753  -30.7123 C   0  0  0  0  0  0  0  0  0  0  0  0
  -25.4344    3.5740  -30.3954 C   0  0  0  0  0  0  0  0  0  0  0  0
  -24.0679    4.1585  -30.2528 C   0  0  0  0  0  0  0  0  0  0  0  0
  1  2  2  0
  2  3  1  0
  3  4  2  0
  4  5  1  0
  1  6  1  0
  5  6  2  0
  3  7  1  0
  7  8  2  0
  8  9  1  0
  2 10  1  0
  9 10  2  0
  8 11  1  0
 11 12  1  0
 12 13  2  0
 13 14  1  0
 11 15  1  0
 14 15  1  0
 15 16  2  0
 17 14  1  6
 17 18  1  0
 18 19  1  0
 19 20  1  0
 20 21  1  0
 17 22  1  0
 21 22  1  0
 12 23  1  0
 23 24  2  0
 24 25  1  0
 25 26  2  0
 26 27  1  0
 23 28  1  0
 27 28  2  0
 27 29  1  0
 30 29  1  6
 30 31  1  0
 31 32  1  0
 32 33  1  0
 33 34  1  0
 30 35  1  0
 34 35  1  0
M  END
$$$$
