3oy1
  PyMOL3.1          3D                             0

 35 40  0  0  0  0  0  0  0  0999 V2000
  -17.3960   11.9000  -36.4350 C   0  0  0  0  0  0  0  0  0  0  0  0
  -18.3760   11.6940  -35.5180 C   0  0  0  0  0  0  0  0  0  0  0  0
  -18.3450   12.3980  -34.2390 C   0  0  0  0  0  0  0  0  0  0  0  0
  -17.3080   13.2680  -33.9990 C   0  0  0  0  0  0  0  0  0  0  0  0
  -16.3320   13.4410  -34.9370 C   0  0  0  0  0  0  0  0  0  0  0  0
  -16.3880   12.7750  -36.1330 C   0  0  0  0  0  0  0  0  0  0  0  0
  -19.3440   12.1770  -33.3190 C   0  0  0  0  0  0  0  0  0  0  0  0
  -20.3880   11.3190  -33.5110 C   0  0  0  0  0  0  0  0  0  0  0  0
  -20.3640   10.6910  -34.7470 C   0  0  0  0  0  0  0  0  0  0  0  0
  -19.4020   10.8450  -35.7290 C   0  0  0  0  0  0  0  0  0  0  0  0
  -21.3340   11.1230  -32.6040 N   0  0  0  0  0  0  0  0  0  0  0  0
  -21.7130    9.9670  -32.0810 C   0  0  0  0  0  0  0  0  0  0  0  0
  -22.7020   10.2500  -31.2490 N   0  0  0  0  0  0  0  0  0  0  0  0
  -22.8720   11.5740  -31.2630 N   0  0  0  0  0  0  0  0  0  0  0  0
  -22.0140   12.0740  -32.0940 C   0  0  0  0  0  0  0  0  0  0  0  0
  -21.8700   13.2810  -32.3970 O   0  0  0  0  0  0  0  0  0  0  0  0
  -23.9180   11.9890  -30.3460 C   0  0  0  0  0  0  0  0  0  0  0  0
  -25.1120   12.5780  -30.9870 C   0  0  0  0  0  0  0  0  0  0  0  0
  -26.1970   12.5140  -29.9740 C   0  0  0  0  0  0  0  0  0  0  0  0
  -25.8880   13.3920  -28.9400 O   0  0  0  0  0  0  0  0  0  0  0  0
  -24.6230   13.2110  -28.3240 C   0  0  0  0  0  0  0  0  0  0  0  0
  -23.4830   12.9380  -29.2810 C   0  0  0  0  0  0  0  0  0  0  0  0
  -21.2980    8.5610  -32.2970 C   0  0  0  0  0  0  0  0  0  0  0  0
  -20.0340    8.2450  -32.6630 C   0  0  0  0  0  0  0  0  0  0  0  0
  -19.6930    6.9450  -32.8320 C   0  0  0  0  0  0  0  0  0  0  0  0
  -20.5390    5.9800  -32.6720 N   0  0  0  0  0  0  0  0  0  0  0  0
  -21.7910    6.2200  -32.3010 C   0  0  0  0  0  0  0  0  0  0  0  0
  -22.1760    7.5250  -32.1070 C   0  0  0  0  0  0  0  0  0  0  0  0
  -22.6050    5.1780  -32.1550 N   0  0  0  0  0  0  0  0  0  0  0  0
  -23.8990    5.2040  -31.5690 C   0  0  0  0  0  0  0  0  0  0  0  0
  -24.6320    3.9500  -31.9480 C   0  0  0  0  0  0  0  0  0  0  0  0
  -25.9780    3.8970  -31.2740 C   0  0  0  0  0  0  0  0  0  0  0  0
  -25.8950    3.9370  -29.7770 C   0  0  0  0  0  0  0  0  0  0  0  0
  -25.1140    5.1560  -29.3770 C   0  0  0  0  0  0  0  0  0  0  0  0
  -23.7730    5.2590  -30.0680 C   0  0  0  0  0  0  0  0  0  0  0  0
  1  2  2  0  0  0  0
  2  3  1  0  0  0  0
  3  4  2  0  0  0  0
  4  5  1  0  0  0  0
  1  6  1  0  0  0  0
  5  6  2  0  0  0  0
  3  7  1  0  0  0  0
  7  8  2  0  0  0  0
  8  9  1  0  0  0  0
  2 10  1  0  0  0  0
  9 10  2  0  0  0  0
  8 11  1  0  0  0  0
 11 12  1  0  0  0  0
 12 13  2  0  0  0  0
 13 14  1  0  0  0  0
 11 15  1  0  0  0  0
 14 15  1  0  0  0  0
 15 16  2  0  0  0  0
 14 17  1  0  0  0  0
 17 18  1  0  0  0  0
 18 19  1  0  0  0  0
 19 20  1  0  0  0  0
 20 21  1  0  0  0  0
 17 22  1  0  0  0  0
 21 22  1  0  0  0  0
 12 23  1  0  0  0  0
 23 24  2  0  0  0  0
 24 25  1  0  0  0  0
 25 26  2  0  0  0  0
 26 27  1  0  0  0  0
 23 28  1  0  0  0  0
 27 28  2  0  0  0  0
 27 29  1  0  0  0  0
 29 30  1  0  0  0  0
 30 31  1  0  0  0  0
 31 32  1  0  0  0  0
 32 33  1  0  0  0  0
 33 34  1  0  0  0  0
 30 35  1  0  0  0  0
 34 35  1  0  0  0  0
M  END
$$$$
