1a0q_ligand
     RDKit          3D

 23 23  0  0  0  0  0  0  0  0999 V2000
   13.3446   20.1646   59.1093 C   0  0  2  0  0  0  0  0  0  0  0  0
   12.6632   19.0903   58.2721 C   0  0  0  0  0  0  0  0  0  0  0  0
   11.7131   18.2554   59.0960 C   0  0  0  0  0  0  0  0  0  0  0  0
   11.2179   17.1100   58.2322 C   0  0  0  0  0  0  0  0  0  0  0  0
   12.0729   15.8687   58.3882 C   0  0  0  0  0  0  0  0  0  0  0  0
   16.2449   21.9033   55.8833 C   0  0  0  0  0  0  0  0  0  0  0  0
   17.2149   22.2778   54.9697 C   0  0  0  0  0  0  0  0  0  0  0  0
   16.8964   22.2958   53.6262 C   0  0  0  0  0  0  0  0  0  0  0  0
   15.6130   21.9370   53.2418 C   0  0  0  0  0  0  0  0  0  0  0  0
   14.6519   21.5644   54.1646 C   0  0  0  0  0  0  0  0  0  0  0  0
   14.9722   21.5457   55.5226 C   0  0  0  0  0  0  0  0  0  0  0  0
   12.6618   20.9984   61.3075 C   0  0  0  0  0  0  0  0  0  0  0  0
   12.0489   21.7036   63.6080 C   0  0  0  0  0  0  0  0  0  0  0  0
   11.7499   21.8108   62.1499 C   0  0  0  0  0  0  0  0  0  0  0  0
   11.3935   20.4751   64.1304 C   0  0  0  0  0  0  0  0  0  0  0  0
   14.5824   22.4980   58.7049 O   0  0  0  0  0  0  0  0  0  0  0  0
   15.9755   20.4245   58.1826 O   0  0  0  0  0  0  0  0  0  0  0  0
   14.0122   21.1731   56.4493 O   0  0  0  0  0  0  0  0  0  0  0  0
   13.6295   20.4370   61.9165 O   0  0  0  0  0  0  0  0  0  0  0  0
   10.6377   19.8481   63.3281 O   0  0  0  0  0  0  0  0  0  0  0  0
   11.5787   20.0144   65.4196 O   0  0  0  0  0  0  0  0  0  0  0  0
   12.4315   20.8854   59.9303 N   0  0  0  0  0  0  0  0  0  0  0  0
   14.4359   21.1289   58.0838 P   0  0  1  0  0  0  0  0  0  0  0  0
  1 23  1  0
  1 22  1  6
  1  2  1  0
  2  3  1  6
  3  4  1  6
  4  5  1  6
 22 12  1  0
 12 19  2  0
 14 12  1  1
 14 13  1  0
 13 15  1  6
 15 20  2  0
 15 21  1  0
 23 16  2  0
 23 17  1  6
 23 18  1  0
 18 11  1  0
 11 10  1  0
 11  6  2  0
  6  7  1  0
  7  8  2  0
  8  9  1  0
  9 10  2  0
M  END
$$$$
