1a0q_ligand
     RDKit          3D

 23 23  0  0  0  0  0  0  0  0999 V2000
   13.0413   20.6675   59.4188 C   0  0  2  0  0  0  0  0  0  0  0  0
   12.3334   19.7931   58.3924 C   0  0  0  0  0  0  0  0  0  0  0  0
   11.8574   18.4936   58.9953 C   0  0  0  0  0  0  0  0  0  0  0  0
   11.2524   17.6510   57.8875 C   0  0  0  0  0  0  0  0  0  0  0  0
   12.2408   17.3855   56.7701 C   0  0  0  0  0  0  0  0  0  0  0  0
   14.9511   21.7544   55.7324 C   0  0  0  0  0  0  0  0  0  0  0  0
   15.2858   21.9803   54.4085 C   0  0  0  0  0  0  0  0  0  0  0  0
   16.6195   22.0097   54.0518 C   0  0  0  0  0  0  0  0  0  0  0  0
   17.5760   21.8111   55.0364 C   0  0  0  0  0  0  0  0  0  0  0  0
   17.2289   21.5861   56.3566 C   0  0  0  0  0  0  0  0  0  0  0  0
   15.8816   21.5562   56.7186 C   0  0  0  0  0  0  0  0  0  0  0  0
   12.2404   20.5962   61.7311 C   0  0  0  0  0  0  0  0  0  0  0  0
   11.3215   20.0802   63.9794 C   0  0  0  0  0  0  0  0  0  0  0  0
   11.1237   20.7989   62.6866 C   0  0  0  0  0  0  0  0  0  0  0  0
   10.9967   18.6441   63.7701 C   0  0  0  0  0  0  0  0  0  0  0  0
   13.1951   22.5264   57.5052 O   0  0  0  0  0  0  0  0  0  0  0  0
   14.3429   23.1319   59.7027 O   0  0  0  0  0  0  0  0  0  0  0  0
   15.5305   21.3311   58.0397 O   0  0  0  0  0  0  0  0  0  0  0  0
   13.2282   19.9193   62.1654 O   0  0  0  0  0  0  0  0  0  0  0  0
   11.6277   17.8078   64.4846 O   0  0  0  0  0  0  0  0  0  0  0  0
   10.0599   18.2113   62.8516 O   0  0  0  0  0  0  0  0  0  0  0  0
   12.1671   21.1359   60.4404 N   0  0  0  0  0  0  0  0  0  0  0  0
   14.0345   21.8910   58.5886 P   0  0  1  0  0  0  0  0  0  0  0  0
  1 23  1  0
  1 22  1  6
  1  2  1  0
  2  3  1  6
  3  4  1  6
  4  5  1  6
 22 12  1  0
 12 19  2  0
 14 12  1  1
 14 13  1  0
 13 15  1  6
 15 20  2  0
 15 21  1  0
 23 16  2  0
 23 17  1  1
 23 18  1  0
 18 11  1  0
 11 10  1  0
 11  6  2  0
  6  7  1  0
  7  8  2  0
  8  9  1  0
  9 10  2  0
M  END
$$$$
