1a0q_ligand
     RDKit          3D

 23 23  0  0  0  0  0  0  0  0999 V2000
   13.0297   20.0881   59.0785 C   0  0  2  0  0  0  0  0  0  0  0  0
   12.1877   19.3419   58.0521 C   0  0  0  0  0  0  0  0  0  0  0  0
   11.3032   18.3042   58.6996 C   0  0  0  0  0  0  0  0  0  0  0  0
   11.4574   17.0044   57.9316 C   0  0  0  0  0  0  0  0  0  0  0  0
   10.6740   15.8726   58.5654 C   0  0  0  0  0  0  0  0  0  0  0  0
   15.4153   21.5464   54.8638 C   0  0  0  0  0  0  0  0  0  0  0  0
   16.1296   22.3669   54.0081 C   0  0  0  0  0  0  0  0  0  0  0  0
   17.2659   22.9954   54.4780 C   0  0  0  0  0  0  0  0  0  0  0  0
   17.6495   22.7801   55.7934 C   0  0  0  0  0  0  0  0  0  0  0  0
   16.9270   21.9575   56.6392 C   0  0  0  0  0  0  0  0  0  0  0  0
   15.7785   21.3217   56.1658 C   0  0  0  0  0  0  0  0  0  0  0  0
   12.6439   20.4399   61.4703 C   0  0  0  0  0  0  0  0  0  0  0  0
   11.9867   20.7104   63.8494 C   0  0  0  0  0  0  0  0  0  0  0  0
   12.1770   21.3724   62.5256 C   0  0  0  0  0  0  0  0  0  0  0  0
   11.2384   21.6422   64.7345 C   0  0  0  0  0  0  0  0  0  0  0  0
   13.3653   22.4160   57.8098 O   0  0  0  0  0  0  0  0  0  0  0  0
   15.2452   21.7702   59.4104 O   0  0  0  0  0  0  0  0  0  0  0  0
   15.0528   20.4973   57.0100 O   0  0  0  0  0  0  0  0  0  0  0  0
   13.3991   19.4912   61.8605 O   0  0  0  0  0  0  0  0  0  0  0  0
   10.9715   22.7874   64.2598 O   0  0  0  0  0  0  0  0  0  0  0  0
   10.8401   21.3067   66.0141 O   0  0  0  0  0  0  0  0  0  0  0  0
   12.2513   20.6321   60.1394 N   0  0  0  0  0  0  0  0  0  0  0  0
   14.1471   21.2007   58.2502 P   0  0  1  0  0  0  0  0  0  0  0  0
  1 23  1  0
  1 22  1  1
  1  2  1  0
  2  3  1  6
  3  4  1  6
  4  5  1  6
 22 12  1  0
 12 19  2  0
 14 12  1  1
 14 13  1  0
 13 15  1  6
 15 20  2  0
 15 21  1  0
 23 16  2  0
 23 17  1  1
 23 18  1  0
 18 11  1  0
 11 10  1  0
 11  6  2  0
  6  7  1  0
  7  8  2  0
  8  9  1  0
  9 10  2  0
M  END
$$$$
