1RQ
     RDKit          3D

 38 44  0  0  0  0  0  0  0  0999 V2000
    4.8900   27.1330   32.1320 C   0  0  1  0  0  0  0  0  0  0  0  0
    6.2430   27.2770   32.4690 C   0  0  0  0  0  0  0  0  0  0  0  0
    6.7520   28.5440   32.7140 C   0  0  0  0  0  0  0  0  0  0  0  0
    5.9060   29.6470   32.5890 N   0  0  0  0  0  0  0  0  0  0  0  0
    4.1430   28.2400   31.9930 N   0  0  0  0  0  0  0  0  0  0  0  0
   -1.0570   33.7520   34.1600 C   0  0  0  0  0  0  0  0  0  0  0  0
   -1.7440   32.4370   34.5030 C   0  0  0  0  0  0  0  0  0  0  0  0
   -0.4860   32.4370   33.6220 C   0  0  1  0  0  0  0  0  0  0  0  0
   -0.6920   32.2010   32.1170 C   0  0  0  0  0  0  0  0  0  0  0  0
   -1.8190   32.3140   31.6300 O   0  0  0  0  0  0  0  0  0  0  0  0
    0.4060   31.8740   31.3890 N   0  0  0  0  0  0  0  0  0  0  0  0
    1.7440   31.7380   32.0190 C   0  0  0  0  0  0  0  0  0  0  0  0
    0.2680   31.6550   29.9120 C   0  0  0  0  0  0  0  0  0  0  0  0
    1.0780   30.4470   29.4130 C   0  0  0  0  0  0  0  0  0  0  0  0
    2.5230   30.4710   29.9700 C   0  0  0  0  0  0  0  0  0  0  0  0
    2.4840   30.4960   31.5310 C   0  0  1  0  0  0  0  0  0  0  0  0
    3.8420   30.5470   32.0840 N   0  0  0  0  0  0  0  0  0  0  0  0
    4.6270   29.4730   32.2200 C   0  0  0  0  0  0  0  0  0  0  0  0
    4.3760   25.9220   31.8600 N   0  0  0  0  0  0  0  0  0  0  0  0
    3.3890   25.7120   30.9560 C   0  0  0  0  0  0  0  0  0  0  0  0
    2.6730   26.5520   30.1770 C   0  0  0  0  0  0  0  0  0  0  0  0
    1.6870   26.0670   29.3100 C   0  0  0  0  0  0  0  0  0  0  0  0
    0.9580   26.9120   28.5210 O   0  0  0  0  0  0  0  0  0  0  0  0
    1.4520   24.6940   29.2620 C   0  0  0  0  0  0  0  0  0  0  0  0
    2.2200   23.8760   30.0860 C   0  0  0  0  0  0  0  0  0  0  0  0
    3.1560   24.3980   30.8970 C   0  0  0  0  0  0  0  0  0  0  0  0
    3.9870   23.7970   31.7420 N   0  0  0  0  0  0  0  0  0  0  0  0
    4.7320   24.7120   32.3320 C   0  0  0  0  0  0  0  0  0  0  0  0
    5.6450   24.4290   33.2770 C   0  0  0  0  0  0  0  0  0  0  0  0
    6.6200   23.4460   33.1180 C   0  0  0  0  0  0  0  0  0  0  0  0
    7.5360   23.2070   34.1490 C   0  0  0  0  0  0  0  0  0  0  0  0
    8.5200   22.2380   33.9760 C   0  0  0  0  0  0  0  0  0  0  0  0
    9.4370   22.0090   35.0060 C   0  0  0  0  0  0  0  0  0  0  0  0
    9.3780   22.7430   36.1910 C   0  0  0  0  0  0  0  0  0  0  0  0
    8.3970   23.7100   36.3670 C   0  0  0  0  0  0  0  0  0  0  0  0
    7.4770   23.9400   35.3480 C   0  0  0  0  0  0  0  0  0  0  0  0
    6.4990   24.9120   35.5260 C   0  0  0  0  0  0  0  0  0  0  0  0
    5.5840   25.1320   34.4950 C   0  0  0  0  0  0  0  0  0  0  0  0
  2  1  1  0
  3  2  1  0
  4  3  1  0
  5  1  1  0
  7  6  1  0
  8  7  1  0
  8  6  1  0
  8  9  1  6
 10  9  1  0
 11  9  1  0
 12 11  1  0
 13 11  1  0
 14 13  1  0
 15 14  1  0
 16 15  1  0
 16 12  1  0
 16 17  1  1
 18 17  1  0
 18  5  1  0
 18  4  1  0
  1 19  1  6
 20 19  1  0
 21 20  1  0
 22 21  1  0
 23 22  1  0
 24 22  1  0
 25 24  1  0
 26 25  1  0
 26 20  1  0
 27 26  1  0
 28 27  1  0
 28 19  1  0
 29 28  1  0
 30 29  1  0
 31 30  1  0
 32 31  1  0
 33 32  1  0
 34 33  1  0
 35 34  1  0
 36 35  1  0
 36 31  1  0
 37 36  1  0
 38 37  1  0
 38 29  1  0
M  END
$$$$
