1RQ
     RDKit          3D

 38 44  0  0  0  0  0  0  0  0999 V2000
    4.5988   27.1425   32.6310 C   0  0  1  0  0  0  0  0  0  0  0  0
    5.6158   28.0943   31.9760 C   0  0  0  0  0  0  0  0  0  0  0  0
    6.0561   29.1450   32.9685 C   0  0  0  0  0  0  0  0  0  0  0  0
    4.9158   29.4419   33.8028 N   0  0  0  0  0  0  0  0  0  0  0  0
    3.3810   27.9447   32.6746 N   0  0  0  0  0  0  0  0  0  0  0  0
   -1.7237   32.7208   34.0583 C   0  0  0  0  0  0  0  0  0  0  0  0
   -0.5601   31.9001   34.5088 C   0  0  0  0  0  0  0  0  0  0  0  0
   -0.5904   32.5055   33.1511 C   0  0  1  0  0  0  0  0  0  0  0  0
   -0.6360   31.6170   31.9465 C   0  0  0  0  0  0  0  0  0  0  0  0
   -1.8694   31.7327   31.3032 O   0  0  0  0  0  0  0  0  0  0  0  0
    0.4994   31.8216   31.1108 N   0  0  0  0  0  0  0  0  0  0  0  0
    1.7511   31.5374   31.8006 C   0  0  0  0  0  0  0  0  0  0  0  0
    0.4507   31.2179   29.8147 C   0  0  0  0  0  0  0  0  0  0  0  0
    1.7981   31.4883   29.1347 C   0  0  0  0  0  0  0  0  0  0  0  0
    2.7582   30.4926   29.7674 C   0  0  0  0  0  0  0  0  0  0  0  0
    2.4565   30.3172   31.2451 C   0  0  1  0  0  0  0  0  0  0  0  0
    3.7268   30.2007   31.9326 N   0  0  0  0  0  0  0  0  0  0  0  0
    3.6725   29.3110   33.0680 C   0  0  0  0  0  0  0  0  0  0  0  0
    4.4815   26.0574   31.7680 N   0  0  0  0  0  0  0  0  0  0  0  0
    3.1973   25.9495   31.1190 C   0  0  0  0  0  0  0  0  0  0  0  0
    3.2220   26.1650   29.6288 C   0  0  0  0  0  0  0  0  0  0  0  0
    1.9541   25.4585   29.1254 C   0  0  0  0  0  0  0  0  0  0  0  0
    1.4152   26.2899   28.1645 O   0  0  0  0  0  0  0  0  0  0  0  0
    0.9074   25.3328   30.2234 C   0  0  0  0  0  0  0  0  0  0  0  0
    1.3822   24.3972   31.3485 C   0  0  0  0  0  0  0  0  0  0  0  0
    2.8485   24.4664   31.2754 C   0  0  0  0  0  0  0  0  0  0  0  0
    3.6255   24.1402   32.4210 N   0  0  0  0  0  0  0  0  0  0  0  0
    4.8920   24.7850   31.9842 C   0  0  0  0  0  0  0  0  0  0  0  0
    6.0308   24.2582   32.6876 C   0  0  0  0  0  0  0  0  0  0  0  0
    6.0078   23.0053   33.4645 C   0  0  0  0  0  0  0  0  0  0  0  0
    7.4582   22.8776   33.9696 C   0  0  0  0  0  0  0  0  0  0  0  0
    7.7778   21.4707   34.3909 C   0  0  0  0  0  0  0  0  0  0  0  0
    9.2507   21.4959   34.7809 C   0  0  0  0  0  0  0  0  0  0  0  0
    9.5261   22.4754   35.8879 C   0  0  0  0  0  0  0  0  0  0  0  0
    8.9770   23.8613   35.5763 C   0  0  0  0  0  0  0  0  0  0  0  0
    7.5336   23.6980   35.2577 C   0  0  0  0  0  0  0  0  0  0  0  0
    6.8006   24.9749   34.9925 C   0  0  0  0  0  0  0  0  0  0  0  0
    6.7208   25.3330   33.5397 C   0  0  0  0  0  0  0  0  0  0  0  0
  2  1  1  0
  3  2  1  0
  4  3  1  0
  5  1  1  0
  7  6  1  0
  8  7  1  0
  8  6  1  0
  8  9  1  6
 10  9  1  0
 11  9  1  0
 12 11  1  0
 13 11  1  0
 14 13  1  0
 15 14  1  0
 16 15  1  0
 16 12  1  0
 16 17  1  1
 18 17  1  0
 18  5  1  0
 18  4  1  0
  1 19  1  6
 20 19  1  0
 21 20  1  0
 22 21  1  0
 23 22  1  0
 24 22  1  0
 25 24  1  0
 26 25  1  0
 26 20  1  0
 27 26  1  0
 28 27  1  0
 28 19  1  0
 29 28  1  0
 30 29  1  0
 31 30  1  0
 32 31  1  0
 33 32  1  0
 34 33  1  0
 35 34  1  0
 36 35  1  0
 36 31  1  0
 37 36  1  0
 38 37  1  0
 38 29  1  0
M  END
$$$$
